2026-03-20T11:57:23,315  INFO Config:461 setting context to [file:/Users/rei/Documents/GitHub/travel-simulation-in-bangkok-using-activity-based-model/]
2026-03-20T11:57:23,347  INFO Version:21 HV000001: Hibernate Validator 8.0.1.Final
2026-03-20T11:57:23,423  INFO ScenarioLoaderImpl:135 loading network from file:/Users/rei/Documents/GitHub/travel-simulation-in-bangkok-using-activity-based-model/data/processed/network.cleaned.xml.gz
2026-03-20T11:57:23,425  INFO MatsimXmlParser:170 starting to parse xml from url file:/Users/rei/Documents/GitHub/travel-simulation-in-bangkok-using-activity-based-model/data/processed/network.cleaned.xml.gz ...
2026-03-20T11:57:23,467  INFO MatsimNetworkReader:122 using network_v2-reader.
2026-03-20T11:57:23,467  INFO MatsimXmlParser:296 Trying to load http://www.matsim.org/files/dtd/network_v2.dtd. In some cases (e.g. network interface up but no connection), this may take a bit.
2026-03-20T11:57:23,920  INFO NetworkImpl:165  node # 1
2026-03-20T11:57:23,920  INFO NetworkImpl:165  node # 4
2026-03-20T11:57:23,921  INFO NetworkImpl:165  node # 16
2026-03-20T11:57:23,924  INFO NetworkImpl:165  node # 64
2026-03-20T11:57:23,931  INFO NetworkImpl:165  node # 256
2026-03-20T11:57:23,943  INFO NetworkImpl:165  node # 1024
2026-03-20T11:57:23,956  INFO NetworkImpl:165  node # 4096
2026-03-20T11:57:23,971  INFO NetworkImpl:161  link # 1
2026-03-20T11:57:23,971  INFO NetworkImpl:161  link # 4
2026-03-20T11:57:23,972  INFO NetworkImpl:161  link # 16
2026-03-20T11:57:23,974  INFO NetworkImpl:161  link # 64
2026-03-20T11:57:23,980  INFO NetworkImpl:161  link # 256
2026-03-20T11:57:23,982  WARN LinkImpl:121 permlanes=0.5 of link id 10294 may cause problems
2026-03-20T11:57:23,982  WARN LinkImpl:123  Future occurences of this logging statement are suppressed.
2026-03-20T11:57:23,990  INFO NetworkImpl:161  link # 1024
2026-03-20T11:57:24,010  INFO NetworkImpl:161  link # 4096
2026-03-20T11:57:24,073  INFO NetworkImpl:161  link # 16384
2026-03-20T11:57:24,083  INFO ScenarioLoaderImpl:172 no facilities file set in config, therefore not loading any facilities.  This is not a problem except if you are using facilities
2026-03-20T11:57:24,083  INFO ScenarioLoaderImpl:188 no facility-attributes file set in config, not loading any facility attributes
2026-03-20T11:57:24,083  INFO ScenarioLoaderImpl:196 loading population from file:/Users/rei/Documents/GitHub/travel-simulation-in-bangkok-using-activity-based-model/data/processed/plan_20k.xml
2026-03-20T11:57:24,085  INFO MatsimXmlParser:170 starting to parse xml from url file:/Users/rei/Documents/GitHub/travel-simulation-in-bangkok-using-activity-based-model/data/processed/plan_20k.xml ...
2026-03-20T11:57:24,086  INFO PopulationReader:135 using population_v6-reader.
2026-03-20T11:57:24,086  INFO MatsimXmlParser:296 Trying to load http://www.matsim.org/files/dtd/population_v6.dtd. In some cases (e.g. network interface up but no connection), this may take a bit.
2026-03-20T11:57:24,300  INFO ParallelPopulationReaderMatsimV6:168 Start parallel population reading...
2026-03-20T11:57:24,310  INFO PopulationImpl:111  person # 1
2026-03-20T11:57:24,311  INFO PopulationImpl:111  person # 4
2026-03-20T11:57:24,313  INFO PopulationImpl:111  person # 16
2026-03-20T11:57:24,315  INFO PopulationImpl:111  person # 64
2026-03-20T11:57:24,322  INFO PopulationImpl:111  person # 256
2026-03-20T11:57:24,337  INFO PopulationImpl:111  person # 1024
2026-03-20T11:57:24,361  INFO PopulationImpl:111  person # 4096
2026-03-20T11:57:24,450  INFO PopulationImpl:111  person # 16384
2026-03-20T11:57:24,462  INFO ParallelPopulationReaderMatsimV6:238 Finished parallel population reading...
2026-03-20T11:57:24,463  INFO PopulationUtils:1145  person # 20000
2026-03-20T11:57:24,463  INFO ScenarioLoaderImpl:244 no person-attributes file set in config, not loading any person attributes
2026-03-20T11:57:24,463  INFO ScenarioLoaderImpl:258 no households file set in config, not loading households
2026-03-20T11:57:24,463  INFO ScenarioLoaderImpl:292 no transit schedule file set in config, not loading any transit schedule
2026-03-20T11:57:24,463  INFO ScenarioLoaderImpl:333 no transit vehicles file set in config, not loading any transit vehicles
DEBUG: Population subset to 100 people.
DEBUG: Signal cleaning done — removed 674 signals, 242 systems, 674 groups.
Simulation setup complete! Running Lämmer Simulation...
2026-03-20T11:57:24,865  WARN ControllerConfigGroup:490 setting overwriting behavior to overwriteExistingFiles
2026-03-20T11:57:24,866  WARN ControllerConfigGroup:491 this is not recommended, as it might result in a directory containing output from several model runs
2026-03-20T11:57:24,866  WARN ControllerConfigGroup:492 prefer the options deleteDirectoryIfExists or failIfDirectoryExists
2026-03-20T11:57:24,866  INFO ScoringConfigGroup$ScoringParameterSet:1607 NO OPENING OR CLOSING TIMES DEFINED!

There is no activity type that has an opening *and* closing time (or opening time and late penalty) defined.
This usually means that the activity chains can be shifted by an arbitrary
number of hours without having an effect on the score of the plans, and thus
resulting in wrong results / traffic patterns.
If you are using MATSim without time adaptation, you can ignore this warning.


2026-03-20T11:57:24,866  INFO VspConfigConsistencyCheckerImpl:62 NOT running vsp config consistency check because vsp defaults checking level is set to IGNORE
WARNING: A terminally deprecated method in sun.misc.Unsafe has been called
WARNING: sun.misc.Unsafe::objectFieldOffset has been called by com.google.common.util.concurrent.AbstractFuture$UnsafeAtomicHelper (file:/Users/rei/.m2/repository/com/google/guava/guava/33.3.0-jre/guava-33.3.0-jre.jar)
WARNING: Please consider reporting this to the maintainers of class com.google.common.util.concurrent.AbstractFuture$UnsafeAtomicHelper
WARNING: sun.misc.Unsafe::objectFieldOffset will be removed in a future release
2026-03-20T11:57:25,079  WARN SignalsModule:34 setting travelTimeCalculatur.setSeparateModes to false since otherwise link2link routing does not work (Custom SignalsModule)
2026-03-20T11:57:25,096  WARN SignalsModule:34 setting travelTimeCalculatur.setSeparateModes to false since otherwise link2link routing does not work (Custom SignalsModule)
2026-03-20T11:57:25,110  WARN SignalsModule:34 setting travelTimeCalculatur.setSeparateModes to false since otherwise link2link routing does not work (Custom SignalsModule)
2026-03-20T11:57:25,123  WARN SignalsModule:34 setting travelTimeCalculatur.setSeparateModes to false since otherwise link2link routing does not work (Custom SignalsModule)
2026-03-20T11:57:25,168  INFO SimStepParallelEventsManagerImpl:83 number of threads=1
2026-03-20T11:57:25,169  INFO EventsManagerImpl:139 === Logging of event-handlers skipped ===
2026-03-20T11:57:25,169  INFO EventsManagerImpl:140 To enable debug output, set an environment variable i.e. export LOG_LEVEL='debug', or set log.setLogLevel(Level.DEBUG) in your run class.
2026-03-20T11:57:25,169  INFO EventsManagerImpl:210     > org.matsim.api.core.v01.events.LinkEnterEvent
2026-03-20T11:57:25,169  INFO EventsManagerImpl:210     > org.matsim.api.core.v01.events.LinkLeaveEvent
2026-03-20T11:57:25,169  INFO EventsManagerImpl:210     > org.matsim.api.core.v01.events.VehicleEntersTrafficEvent
2026-03-20T11:57:25,169  INFO EventsManagerImpl:210     > org.matsim.api.core.v01.events.VehicleLeavesTrafficEvent
2026-03-20T11:57:25,169  INFO EventsManagerImpl:210     > org.matsim.core.api.experimental.events.VehicleArrivesAtFacilityEvent
2026-03-20T11:57:25,169  INFO EventsManagerImpl:210     > org.matsim.api.core.v01.events.VehicleAbortsEvent
2026-03-20T11:57:25,169  INFO EventsManagerImpl:139 === Logging of event-handlers skipped ===
2026-03-20T11:57:25,169  INFO EventsManagerImpl:140 To enable debug output, set an environment variable i.e. export LOG_LEVEL='debug', or set log.setLogLevel(Level.DEBUG) in your run class.
2026-03-20T11:57:25,169  INFO EventsManagerImpl:210     > org.matsim.api.core.v01.events.LinkEnterEvent
2026-03-20T11:57:25,170  INFO EventsManagerImpl:210     > org.matsim.api.core.v01.events.LinkLeaveEvent
2026-03-20T11:57:25,170  INFO EventsManagerImpl:210     > org.matsim.api.core.v01.events.VehicleEntersTrafficEvent
2026-03-20T11:57:25,170  INFO EventsManagerImpl:210     > org.matsim.api.core.v01.events.VehicleLeavesTrafficEvent
2026-03-20T11:57:25,170  INFO EventsManagerImpl:210     > org.matsim.core.api.experimental.events.VehicleArrivesAtFacilityEvent
2026-03-20T11:57:25,170  INFO EventsManagerImpl:210     > org.matsim.api.core.v01.events.VehicleAbortsEvent
2026-03-20T11:57:25,171  WARN OutputDirectoryHierarchy:272 ###########################################################
2026-03-20T11:57:25,171  WARN OutputDirectoryHierarchy:273 ### THE CONTROLER WILL OVERWRITE FILES IN:
2026-03-20T11:57:25,171  WARN OutputDirectoryHierarchy:274 ### /Users/rei/Documents/GitHub/travel-simulation-in-bangkok-using-activity-based-model/output/laemmer_simulation
2026-03-20T11:57:25,171  WARN OutputDirectoryHierarchy:275 ### full path: /Users/rei/Documents/GitHub/travel-simulation-in-bangkok-using-activity-based-model/output/laemmer_simulation
2026-03-20T11:57:25,171  WARN OutputDirectoryHierarchy:276 ###########################################################
2026-03-20T11:57:25,171  INFO StrategyManager:77 global innovation switch off after iteration: 0
2026-03-20T11:57:25,172  INFO GenericStrategyManagerImpl:364 setting PlanSelectorForRemoval to class org.matsim.core.replanning.selectors.WorstPlanForRemovalSelector
2026-03-20T11:57:25,172  INFO EventsManagerImpl:139 === Logging of event-handlers skipped ===
2026-03-20T11:57:25,172  INFO EventsManagerImpl:140 To enable debug output, set an environment variable i.e. export LOG_LEVEL='debug', or set log.setLogLevel(Level.DEBUG) in your run class.
2026-03-20T11:57:25,172  INFO EventsManagerImpl:210     > org.matsim.api.core.v01.events.Event
2026-03-20T11:57:25,172  INFO EventsManagerImpl:139 === Logging of event-handlers skipped ===
2026-03-20T11:57:25,172  INFO EventsManagerImpl:140 To enable debug output, set an environment variable i.e. export LOG_LEVEL='debug', or set log.setLogLevel(Level.DEBUG) in your run class.
2026-03-20T11:57:25,173  INFO EventsManagerImpl:210     > org.matsim.api.core.v01.events.Event
2026-03-20T11:57:25,173  INFO EventsManagerImpl:139 === Logging of event-handlers skipped ===
2026-03-20T11:57:25,173  INFO EventsManagerImpl:140 To enable debug output, set an environment variable i.e. export LOG_LEVEL='debug', or set log.setLogLevel(Level.DEBUG) in your run class.
2026-03-20T11:57:25,173  INFO EventsManagerImpl:210     > org.matsim.api.core.v01.events.LinkEnterEvent
2026-03-20T11:57:25,173  INFO EventsManagerImpl:210     > org.matsim.api.core.v01.events.LinkLeaveEvent
2026-03-20T11:57:25,173  INFO EventsManagerImpl:210     > org.matsim.api.core.v01.events.VehicleLeavesTrafficEvent
2026-03-20T11:57:25,173  INFO EventsManagerImpl:210     > org.matsim.api.core.v01.events.PersonEntersVehicleEvent
2026-03-20T11:57:25,173  INFO EventsManagerImpl:210     > org.matsim.api.core.v01.events.PersonDepartureEvent
2026-03-20T11:57:25,173  INFO EventsManagerImpl:210     > org.matsim.core.api.experimental.events.LaneEnterEvent
2026-03-20T11:57:25,174  INFO EventsManagerImpl:210     > org.matsim.core.api.experimental.events.LaneLeaveEvent
2026-03-20T11:57:25,174  INFO EventsManagerImpl:139 === Logging of event-handlers skipped ===
2026-03-20T11:57:25,174  INFO EventsManagerImpl:140 To enable debug output, set an environment variable i.e. export LOG_LEVEL='debug', or set log.setLogLevel(Level.DEBUG) in your run class.
2026-03-20T11:57:25,174  INFO EventsManagerImpl:210     > org.matsim.api.core.v01.events.LinkEnterEvent
2026-03-20T11:57:25,174  INFO EventsManagerImpl:210     > org.matsim.api.core.v01.events.LinkLeaveEvent
2026-03-20T11:57:25,174  INFO EventsManagerImpl:210     > org.matsim.api.core.v01.events.VehicleLeavesTrafficEvent
2026-03-20T11:57:25,174  INFO EventsManagerImpl:210     > org.matsim.api.core.v01.events.PersonEntersVehicleEvent
2026-03-20T11:57:25,174  INFO EventsManagerImpl:210     > org.matsim.api.core.v01.events.PersonDepartureEvent
2026-03-20T11:57:25,174  INFO EventsManagerImpl:210     > org.matsim.core.api.experimental.events.LaneEnterEvent
2026-03-20T11:57:25,174  INFO EventsManagerImpl:210     > org.matsim.core.api.experimental.events.LaneLeaveEvent
2026-03-20T11:57:25,184  INFO SignalModelFactoryImpl:59 Creating LaemmerSignalController
2026-03-20T11:57:25,184  INFO SignalModelFactoryImpl:59 Creating LaemmerSignalController
2026-03-20T11:57:25,184  INFO SignalModelFactoryImpl:59 Creating LaemmerSignalController
2026-03-20T11:57:25,184  INFO SignalModelFactoryImpl:59 Creating LaemmerSignalController
2026-03-20T11:57:25,184  INFO SignalModelFactoryImpl:59 Creating LaemmerSignalController
2026-03-20T11:57:25,185  INFO SignalModelFactoryImpl:59 Creating LaemmerSignalController
2026-03-20T11:57:25,185  INFO SignalModelFactoryImpl:59 Creating LaemmerSignalController
2026-03-20T11:57:25,185  INFO SignalModelFactoryImpl:59 Creating LaemmerSignalController
2026-03-20T11:57:25,185  INFO SignalModelFactoryImpl:59 Creating LaemmerSignalController
2026-03-20T11:57:25,185  INFO SignalModelFactoryImpl:59 Creating LaemmerSignalController
2026-03-20T11:57:25,185  INFO SignalModelFactoryImpl:59 Creating LaemmerSignalController
2026-03-20T11:57:25,185  INFO SignalModelFactoryImpl:59 Creating LaemmerSignalController
2026-03-20T11:57:25,185  INFO SignalModelFactoryImpl:59 Creating LaemmerSignalController
2026-03-20T11:57:25,185  INFO SignalModelFactoryImpl:59 Creating LaemmerSignalController
2026-03-20T11:57:25,185  INFO SignalModelFactoryImpl:59 Creating LaemmerSignalController
2026-03-20T11:57:25,185  INFO SignalModelFactoryImpl:59 Creating LaemmerSignalController
2026-03-20T11:57:25,185  INFO SignalModelFactoryImpl:59 Creating LaemmerSignalController
2026-03-20T11:57:25,185  INFO SignalModelFactoryImpl:59 Creating LaemmerSignalController
2026-03-20T11:57:25,185  INFO SignalModelFactoryImpl:59 Creating LaemmerSignalController
2026-03-20T11:57:25,186  INFO SignalModelFactoryImpl:59 Creating LaemmerSignalController
2026-03-20T11:57:25,186  INFO SignalModelFactoryImpl:59 Creating LaemmerSignalController
2026-03-20T11:57:25,186  INFO SignalModelFactoryImpl:59 Creating LaemmerSignalController
2026-03-20T11:57:25,186  INFO SignalModelFactoryImpl:59 Creating LaemmerSignalController
2026-03-20T11:57:25,186  INFO SignalModelFactoryImpl:59 Creating LaemmerSignalController
2026-03-20T11:57:25,186  INFO SignalModelFactoryImpl:59 Creating LaemmerSignalController
2026-03-20T11:57:25,186  INFO SignalModelFactoryImpl:59 Creating LaemmerSignalController
2026-03-20T11:57:25,186  INFO SignalModelFactoryImpl:59 Creating LaemmerSignalController
2026-03-20T11:57:25,186  INFO SignalModelFactoryImpl:59 Creating LaemmerSignalController
2026-03-20T11:57:25,186  INFO SignalModelFactoryImpl:59 Creating LaemmerSignalController
2026-03-20T11:57:25,186  INFO SignalModelFactoryImpl:59 Creating LaemmerSignalController
2026-03-20T11:57:25,186  INFO SignalModelFactoryImpl:59 Creating LaemmerSignalController
2026-03-20T11:57:25,186  INFO SignalModelFactoryImpl:59 Creating LaemmerSignalController
2026-03-20T11:57:25,187  INFO SignalModelFactoryImpl:59 Creating LaemmerSignalController
2026-03-20T11:57:25,187  INFO SignalModelFactoryImpl:59 Creating LaemmerSignalController
2026-03-20T11:57:25,187  INFO SignalModelFactoryImpl:59 Creating LaemmerSignalController
2026-03-20T11:57:25,187  INFO SignalModelFactoryImpl:59 Creating LaemmerSignalController
2026-03-20T11:57:25,187  INFO SignalModelFactoryImpl:59 Creating LaemmerSignalController
2026-03-20T11:57:25,187  INFO SignalModelFactoryImpl:59 Creating LaemmerSignalController
2026-03-20T11:57:25,187  INFO SignalModelFactoryImpl:59 Creating LaemmerSignalController
2026-03-20T11:57:25,187  INFO SignalModelFactoryImpl:59 Creating LaemmerSignalController
2026-03-20T11:57:25,187  INFO SignalModelFactoryImpl:59 Creating LaemmerSignalController
2026-03-20T11:57:25,187  INFO SignalModelFactoryImpl:59 Creating LaemmerSignalController
2026-03-20T11:57:25,187  INFO SignalModelFactoryImpl:59 Creating LaemmerSignalController
2026-03-20T11:57:25,187  INFO SignalModelFactoryImpl:59 Creating LaemmerSignalController
2026-03-20T11:57:25,187  INFO SignalModelFactoryImpl:59 Creating LaemmerSignalController
2026-03-20T11:57:25,187  INFO SignalModelFactoryImpl:59 Creating LaemmerSignalController
2026-03-20T11:57:25,188  INFO SignalModelFactoryImpl:59 Creating LaemmerSignalController
2026-03-20T11:57:25,188  INFO SignalModelFactoryImpl:59 Creating LaemmerSignalController
2026-03-20T11:57:25,188  INFO SignalModelFactoryImpl:59 Creating LaemmerSignalController
2026-03-20T11:57:25,188  INFO SignalModelFactoryImpl:59 Creating LaemmerSignalController
2026-03-20T11:57:25,188  INFO SignalModelFactoryImpl:59 Creating LaemmerSignalController
2026-03-20T11:57:25,188  INFO SignalModelFactoryImpl:59 Creating LaemmerSignalController
2026-03-20T11:57:25,188  INFO SignalModelFactoryImpl:59 Creating LaemmerSignalController
2026-03-20T11:57:25,188  INFO SignalModelFactoryImpl:59 Creating LaemmerSignalController
2026-03-20T11:57:25,188  INFO SignalModelFactoryImpl:59 Creating LaemmerSignalController
2026-03-20T11:57:25,188  INFO SignalModelFactoryImpl:59 Creating LaemmerSignalController
2026-03-20T11:57:25,188  INFO SignalModelFactoryImpl:59 Creating LaemmerSignalController
2026-03-20T11:57:25,188  INFO SignalModelFactoryImpl:59 Creating LaemmerSignalController
2026-03-20T11:57:25,188  INFO SignalModelFactoryImpl:59 Creating LaemmerSignalController
2026-03-20T11:57:25,188  INFO SignalModelFactoryImpl:59 Creating LaemmerSignalController
2026-03-20T11:57:25,188  INFO SignalModelFactoryImpl:59 Creating LaemmerSignalController
2026-03-20T11:57:25,189  INFO SignalModelFactoryImpl:59 Creating LaemmerSignalController
2026-03-20T11:57:25,189  INFO SignalModelFactoryImpl:59 Creating LaemmerSignalController
2026-03-20T11:57:25,189  INFO SignalModelFactoryImpl:59 Creating LaemmerSignalController
2026-03-20T11:57:25,189  INFO SignalModelFactoryImpl:59 Creating LaemmerSignalController
2026-03-20T11:57:25,189  INFO SignalModelFactoryImpl:59 Creating LaemmerSignalController
2026-03-20T11:57:25,189  INFO SignalModelFactoryImpl:59 Creating LaemmerSignalController
2026-03-20T11:57:25,189  INFO SignalModelFactoryImpl:59 Creating LaemmerSignalController
2026-03-20T11:57:25,189  INFO SignalModelFactoryImpl:59 Creating LaemmerSignalController
2026-03-20T11:57:25,189  INFO SignalModelFactoryImpl:59 Creating LaemmerSignalController
2026-03-20T11:57:25,189  INFO SignalModelFactoryImpl:59 Creating LaemmerSignalController
2026-03-20T11:57:25,189  INFO SignalModelFactoryImpl:59 Creating LaemmerSignalController
2026-03-20T11:57:25,189  INFO SignalModelFactoryImpl:59 Creating LaemmerSignalController
2026-03-20T11:57:25,189  INFO SignalModelFactoryImpl:59 Creating LaemmerSignalController
2026-03-20T11:57:25,189  INFO SignalModelFactoryImpl:59 Creating LaemmerSignalController
2026-03-20T11:57:25,189  INFO SignalModelFactoryImpl:59 Creating LaemmerSignalController
2026-03-20T11:57:25,189  INFO SignalModelFactoryImpl:59 Creating LaemmerSignalController
2026-03-20T11:57:25,190  INFO SignalModelFactoryImpl:59 Creating LaemmerSignalController
2026-03-20T11:57:25,190  INFO SignalModelFactoryImpl:59 Creating LaemmerSignalController
2026-03-20T11:57:25,190  INFO SignalModelFactoryImpl:59 Creating LaemmerSignalController
2026-03-20T11:57:25,190  INFO SignalModelFactoryImpl:59 Creating LaemmerSignalController
2026-03-20T11:57:25,190  INFO SignalModelFactoryImpl:59 Creating LaemmerSignalController
2026-03-20T11:57:25,190  INFO SignalModelFactoryImpl:59 Creating LaemmerSignalController
2026-03-20T11:57:25,190  INFO SignalModelFactoryImpl:59 Creating LaemmerSignalController
2026-03-20T11:57:25,190  INFO SignalModelFactoryImpl:59 Creating LaemmerSignalController
2026-03-20T11:57:25,190  INFO SignalModelFactoryImpl:59 Creating LaemmerSignalController
2026-03-20T11:57:25,190  INFO SignalModelFactoryImpl:59 Creating LaemmerSignalController
2026-03-20T11:57:25,190  INFO SignalModelFactoryImpl:59 Creating LaemmerSignalController
2026-03-20T11:57:25,190  INFO SignalModelFactoryImpl:59 Creating LaemmerSignalController
2026-03-20T11:57:25,190  INFO SignalModelFactoryImpl:59 Creating LaemmerSignalController
2026-03-20T11:57:25,190  INFO SignalModelFactoryImpl:59 Creating LaemmerSignalController
2026-03-20T11:57:25,190  INFO SignalModelFactoryImpl:59 Creating LaemmerSignalController
2026-03-20T11:57:25,190  INFO SignalModelFactoryImpl:59 Creating LaemmerSignalController
2026-03-20T11:57:25,191  INFO SignalModelFactoryImpl:59 Creating LaemmerSignalController
2026-03-20T11:57:25,191  INFO SignalModelFactoryImpl:59 Creating LaemmerSignalController
2026-03-20T11:57:25,191  INFO SignalModelFactoryImpl:59 Creating LaemmerSignalController
2026-03-20T11:57:25,191  INFO SignalModelFactoryImpl:59 Creating LaemmerSignalController
2026-03-20T11:57:25,191  INFO SignalModelFactoryImpl:59 Creating LaemmerSignalController
2026-03-20T11:57:25,191  INFO SignalModelFactoryImpl:59 Creating LaemmerSignalController
2026-03-20T11:57:25,191  INFO SignalModelFactoryImpl:59 Creating LaemmerSignalController
2026-03-20T11:57:25,191  INFO SignalModelFactoryImpl:59 Creating LaemmerSignalController
2026-03-20T11:57:25,191  INFO SignalModelFactoryImpl:59 Creating LaemmerSignalController
2026-03-20T11:57:25,191  INFO SignalModelFactoryImpl:59 Creating LaemmerSignalController
2026-03-20T11:57:25,191  INFO SignalModelFactoryImpl:59 Creating LaemmerSignalController
2026-03-20T11:57:25,191  INFO SignalModelFactoryImpl:59 Creating LaemmerSignalController
2026-03-20T11:57:25,191  INFO SignalModelFactoryImpl:59 Creating LaemmerSignalController
2026-03-20T11:57:25,191  INFO SignalModelFactoryImpl:59 Creating LaemmerSignalController
2026-03-20T11:57:25,191  INFO SignalModelFactoryImpl:59 Creating LaemmerSignalController
2026-03-20T11:57:25,191  INFO SignalModelFactoryImpl:59 Creating LaemmerSignalController
2026-03-20T11:57:25,191  INFO SignalModelFactoryImpl:59 Creating LaemmerSignalController
2026-03-20T11:57:25,191  INFO SignalModelFactoryImpl:59 Creating LaemmerSignalController
2026-03-20T11:57:25,192  INFO SignalModelFactoryImpl:59 Creating LaemmerSignalController
2026-03-20T11:57:25,192  INFO SignalModelFactoryImpl:59 Creating LaemmerSignalController
2026-03-20T11:57:25,192  INFO SignalModelFactoryImpl:59 Creating LaemmerSignalController
2026-03-20T11:57:25,192  INFO SignalModelFactoryImpl:59 Creating LaemmerSignalController
2026-03-20T11:57:25,192  INFO SignalModelFactoryImpl:59 Creating LaemmerSignalController
2026-03-20T11:57:25,192  INFO SignalModelFactoryImpl:59 Creating LaemmerSignalController
2026-03-20T11:57:25,192  INFO SignalModelFactoryImpl:59 Creating LaemmerSignalController
2026-03-20T11:57:25,192  INFO SignalModelFactoryImpl:59 Creating LaemmerSignalController
2026-03-20T11:57:25,192  INFO SignalModelFactoryImpl:59 Creating LaemmerSignalController
2026-03-20T11:57:25,192  INFO SignalModelFactoryImpl:59 Creating LaemmerSignalController
2026-03-20T11:57:25,192  INFO SignalModelFactoryImpl:59 Creating LaemmerSignalController
2026-03-20T11:57:25,192  INFO SignalModelFactoryImpl:59 Creating LaemmerSignalController
2026-03-20T11:57:25,192  INFO SignalModelFactoryImpl:59 Creating LaemmerSignalController
2026-03-20T11:57:25,192  INFO SignalModelFactoryImpl:59 Creating LaemmerSignalController
2026-03-20T11:57:25,192  INFO SignalModelFactoryImpl:59 Creating LaemmerSignalController
2026-03-20T11:57:25,192  INFO SignalModelFactoryImpl:59 Creating LaemmerSignalController
2026-03-20T11:57:25,193  INFO SignalModelFactoryImpl:59 Creating LaemmerSignalController
2026-03-20T11:57:25,193  INFO SignalModelFactoryImpl:59 Creating LaemmerSignalController
2026-03-20T11:57:25,193  INFO SignalModelFactoryImpl:59 Creating LaemmerSignalController
2026-03-20T11:57:25,193  INFO SignalModelFactoryImpl:59 Creating LaemmerSignalController
2026-03-20T11:57:25,193  INFO SignalModelFactoryImpl:59 Creating LaemmerSignalController
2026-03-20T11:57:25,193  INFO SignalModelFactoryImpl:59 Creating LaemmerSignalController
2026-03-20T11:57:25,193  INFO SignalModelFactoryImpl:59 Creating LaemmerSignalController
2026-03-20T11:57:25,193  INFO SignalModelFactoryImpl:59 Creating LaemmerSignalController
2026-03-20T11:57:25,193  INFO SignalModelFactoryImpl:59 Creating LaemmerSignalController
2026-03-20T11:57:25,193  INFO SignalModelFactoryImpl:59 Creating LaemmerSignalController
2026-03-20T11:57:25,193  INFO SignalModelFactoryImpl:59 Creating LaemmerSignalController
2026-03-20T11:57:25,193  INFO SignalModelFactoryImpl:59 Creating LaemmerSignalController
2026-03-20T11:57:25,193  INFO SignalModelFactoryImpl:59 Creating LaemmerSignalController
2026-03-20T11:57:25,193  INFO SignalModelFactoryImpl:59 Creating LaemmerSignalController
2026-03-20T11:57:25,193  INFO SignalModelFactoryImpl:59 Creating LaemmerSignalController
2026-03-20T11:57:25,193  INFO SignalModelFactoryImpl:59 Creating LaemmerSignalController
2026-03-20T11:57:25,193  INFO SignalModelFactoryImpl:59 Creating LaemmerSignalController
2026-03-20T11:57:25,193  INFO SignalModelFactoryImpl:59 Creating LaemmerSignalController
2026-03-20T11:57:25,193  INFO SignalModelFactoryImpl:59 Creating LaemmerSignalController
2026-03-20T11:57:25,193  INFO SignalModelFactoryImpl:59 Creating LaemmerSignalController
2026-03-20T11:57:25,194  INFO SignalModelFactoryImpl:59 Creating LaemmerSignalController
2026-03-20T11:57:25,194  INFO SignalModelFactoryImpl:59 Creating LaemmerSignalController
2026-03-20T11:57:25,194  INFO SignalModelFactoryImpl:59 Creating LaemmerSignalController
2026-03-20T11:57:25,194  INFO SignalModelFactoryImpl:59 Creating LaemmerSignalController
2026-03-20T11:57:25,194  INFO SignalModelFactoryImpl:59 Creating LaemmerSignalController
2026-03-20T11:57:25,194  INFO SignalModelFactoryImpl:59 Creating LaemmerSignalController
2026-03-20T11:57:25,194  INFO SignalModelFactoryImpl:59 Creating LaemmerSignalController
2026-03-20T11:57:25,194  INFO SignalModelFactoryImpl:59 Creating LaemmerSignalController
2026-03-20T11:57:25,194  INFO SignalModelFactoryImpl:59 Creating LaemmerSignalController
2026-03-20T11:57:25,194  INFO SignalModelFactoryImpl:59 Creating LaemmerSignalController
2026-03-20T11:57:25,194  INFO SignalModelFactoryImpl:59 Creating LaemmerSignalController
2026-03-20T11:57:25,194  INFO SignalModelFactoryImpl:59 Creating LaemmerSignalController
2026-03-20T11:57:25,194  INFO SignalModelFactoryImpl:59 Creating LaemmerSignalController
2026-03-20T11:57:25,194  INFO SignalModelFactoryImpl:59 Creating LaemmerSignalController
2026-03-20T11:57:25,194  INFO SignalModelFactoryImpl:59 Creating LaemmerSignalController
2026-03-20T11:57:25,194  INFO SignalModelFactoryImpl:59 Creating LaemmerSignalController
2026-03-20T11:57:25,194  INFO SignalModelFactoryImpl:59 Creating LaemmerSignalController
2026-03-20T11:57:25,194  INFO SignalModelFactoryImpl:59 Creating LaemmerSignalController
2026-03-20T11:57:25,194  INFO SignalModelFactoryImpl:59 Creating LaemmerSignalController
2026-03-20T11:57:25,194  INFO SignalModelFactoryImpl:59 Creating LaemmerSignalController
2026-03-20T11:57:25,195  INFO SignalModelFactoryImpl:59 Creating LaemmerSignalController
2026-03-20T11:57:25,195  INFO SignalModelFactoryImpl:59 Creating LaemmerSignalController
2026-03-20T11:57:25,195  INFO SignalModelFactoryImpl:59 Creating LaemmerSignalController
2026-03-20T11:57:25,195  INFO SignalModelFactoryImpl:59 Creating LaemmerSignalController
2026-03-20T11:57:25,195  INFO SignalModelFactoryImpl:59 Creating LaemmerSignalController
2026-03-20T11:57:25,195  INFO SignalModelFactoryImpl:59 Creating LaemmerSignalController
2026-03-20T11:57:25,195  INFO SignalModelFactoryImpl:59 Creating LaemmerSignalController
2026-03-20T11:57:25,195  INFO SignalModelFactoryImpl:59 Creating LaemmerSignalController
2026-03-20T11:57:25,195  INFO SignalModelFactoryImpl:59 Creating LaemmerSignalController
2026-03-20T11:57:25,195  INFO SignalModelFactoryImpl:59 Creating LaemmerSignalController
2026-03-20T11:57:25,195  INFO SignalModelFactoryImpl:59 Creating LaemmerSignalController
2026-03-20T11:57:25,195  INFO SignalModelFactoryImpl:59 Creating LaemmerSignalController
2026-03-20T11:57:25,195  INFO SignalModelFactoryImpl:59 Creating LaemmerSignalController
2026-03-20T11:57:25,195  INFO SignalModelFactoryImpl:59 Creating LaemmerSignalController
2026-03-20T11:57:25,195  INFO SignalModelFactoryImpl:59 Creating LaemmerSignalController
2026-03-20T11:57:25,195  INFO SignalModelFactoryImpl:59 Creating LaemmerSignalController
2026-03-20T11:57:25,195  INFO SignalModelFactoryImpl:59 Creating LaemmerSignalController
2026-03-20T11:57:25,195  INFO SignalModelFactoryImpl:59 Creating LaemmerSignalController
2026-03-20T11:57:25,195  INFO SignalModelFactoryImpl:59 Creating LaemmerSignalController
2026-03-20T11:57:25,195  INFO SignalModelFactoryImpl:59 Creating LaemmerSignalController
2026-03-20T11:57:25,195  INFO SignalModelFactoryImpl:59 Creating LaemmerSignalController
2026-03-20T11:57:25,195  INFO SignalModelFactoryImpl:59 Creating LaemmerSignalController
2026-03-20T11:57:25,195  INFO SignalModelFactoryImpl:59 Creating LaemmerSignalController
2026-03-20T11:57:25,195  INFO SignalModelFactoryImpl:59 Creating LaemmerSignalController
2026-03-20T11:57:25,196  INFO SignalModelFactoryImpl:59 Creating LaemmerSignalController
2026-03-20T11:57:25,196  INFO SignalModelFactoryImpl:59 Creating LaemmerSignalController
2026-03-20T11:57:25,196  INFO SignalModelFactoryImpl:59 Creating LaemmerSignalController
2026-03-20T11:57:25,196  INFO SignalModelFactoryImpl:59 Creating LaemmerSignalController
2026-03-20T11:57:25,196  INFO SignalModelFactoryImpl:59 Creating LaemmerSignalController
2026-03-20T11:57:25,196  INFO SignalModelFactoryImpl:59 Creating LaemmerSignalController
2026-03-20T11:57:25,196  INFO SignalModelFactoryImpl:59 Creating LaemmerSignalController
2026-03-20T11:57:25,196  INFO SignalModelFactoryImpl:59 Creating LaemmerSignalController
2026-03-20T11:57:25,196  INFO SignalModelFactoryImpl:59 Creating LaemmerSignalController
2026-03-20T11:57:25,196  INFO SignalModelFactoryImpl:59 Creating LaemmerSignalController
2026-03-20T11:57:25,196  INFO SignalModelFactoryImpl:59 Creating LaemmerSignalController
2026-03-20T11:57:25,196  INFO SignalModelFactoryImpl:59 Creating LaemmerSignalController
2026-03-20T11:57:25,196  INFO SignalModelFactoryImpl:59 Creating LaemmerSignalController
2026-03-20T11:57:25,196  INFO SignalModelFactoryImpl:59 Creating LaemmerSignalController
2026-03-20T11:57:25,196  INFO SignalModelFactoryImpl:59 Creating LaemmerSignalController
2026-03-20T11:57:25,196  INFO SignalModelFactoryImpl:59 Creating LaemmerSignalController
2026-03-20T11:57:25,196  INFO SignalModelFactoryImpl:59 Creating LaemmerSignalController
2026-03-20T11:57:25,196  INFO SignalModelFactoryImpl:59 Creating LaemmerSignalController
2026-03-20T11:57:25,196  INFO SignalModelFactoryImpl:59 Creating LaemmerSignalController
2026-03-20T11:57:25,196  INFO SignalModelFactoryImpl:59 Creating LaemmerSignalController
2026-03-20T11:57:25,196  INFO SignalModelFactoryImpl:59 Creating LaemmerSignalController
2026-03-20T11:57:25,196  INFO SignalModelFactoryImpl:59 Creating LaemmerSignalController
2026-03-20T11:57:25,196  INFO SignalModelFactoryImpl:59 Creating LaemmerSignalController
2026-03-20T11:57:25,196  INFO SignalModelFactoryImpl:59 Creating LaemmerSignalController
2026-03-20T11:57:25,196  INFO SignalModelFactoryImpl:59 Creating LaemmerSignalController
2026-03-20T11:57:25,196  INFO SignalModelFactoryImpl:59 Creating LaemmerSignalController
2026-03-20T11:57:25,197  INFO SignalModelFactoryImpl:59 Creating LaemmerSignalController
2026-03-20T11:57:25,197  INFO SignalModelFactoryImpl:59 Creating LaemmerSignalController
2026-03-20T11:57:25,197  INFO SignalModelFactoryImpl:59 Creating LaemmerSignalController
2026-03-20T11:57:25,197  INFO SignalModelFactoryImpl:59 Creating LaemmerSignalController
2026-03-20T11:57:25,197  INFO SignalModelFactoryImpl:59 Creating LaemmerSignalController
2026-03-20T11:57:25,197  INFO SignalModelFactoryImpl:59 Creating LaemmerSignalController
2026-03-20T11:57:25,197  INFO SignalModelFactoryImpl:59 Creating LaemmerSignalController
2026-03-20T11:57:25,197  INFO SignalModelFactoryImpl:59 Creating LaemmerSignalController
2026-03-20T11:57:25,197  INFO SignalModelFactoryImpl:59 Creating LaemmerSignalController
2026-03-20T11:57:25,197  INFO SignalModelFactoryImpl:59 Creating LaemmerSignalController
2026-03-20T11:57:25,197  INFO SignalModelFactoryImpl:59 Creating LaemmerSignalController
2026-03-20T11:57:25,197  INFO SignalModelFactoryImpl:59 Creating LaemmerSignalController
2026-03-20T11:57:25,197  INFO SignalModelFactoryImpl:59 Creating LaemmerSignalController
2026-03-20T11:57:25,197  INFO SignalModelFactoryImpl:59 Creating LaemmerSignalController
2026-03-20T11:57:25,197  INFO SignalModelFactoryImpl:59 Creating LaemmerSignalController
2026-03-20T11:57:25,197  INFO SignalModelFactoryImpl:59 Creating LaemmerSignalController
2026-03-20T11:57:25,197  INFO SignalModelFactoryImpl:59 Creating LaemmerSignalController
2026-03-20T11:57:25,197  INFO SignalModelFactoryImpl:59 Creating LaemmerSignalController
2026-03-20T11:57:25,197  INFO SignalModelFactoryImpl:59 Creating LaemmerSignalController
2026-03-20T11:57:25,197  INFO SignalModelFactoryImpl:59 Creating LaemmerSignalController
2026-03-20T11:57:25,197  INFO SignalModelFactoryImpl:59 Creating LaemmerSignalController
2026-03-20T11:57:25,197  INFO SignalModelFactoryImpl:59 Creating LaemmerSignalController
2026-03-20T11:57:25,197  INFO SignalModelFactoryImpl:59 Creating LaemmerSignalController
2026-03-20T11:57:25,197  INFO SignalModelFactoryImpl:59 Creating LaemmerSignalController
2026-03-20T11:57:25,197  INFO SignalModelFactoryImpl:59 Creating LaemmerSignalController
2026-03-20T11:57:25,198  INFO SignalModelFactoryImpl:59 Creating LaemmerSignalController
2026-03-20T11:57:25,198  INFO SignalModelFactoryImpl:59 Creating LaemmerSignalController
2026-03-20T11:57:25,198  INFO SignalModelFactoryImpl:59 Creating LaemmerSignalController
2026-03-20T11:57:25,198  INFO SignalModelFactoryImpl:59 Creating LaemmerSignalController
2026-03-20T11:57:25,198  INFO SignalModelFactoryImpl:59 Creating LaemmerSignalController
2026-03-20T11:57:25,198  INFO SignalModelFactoryImpl:59 Creating LaemmerSignalController
2026-03-20T11:57:25,198  INFO SignalModelFactoryImpl:59 Creating LaemmerSignalController
2026-03-20T11:57:25,198  INFO SignalModelFactoryImpl:59 Creating LaemmerSignalController
2026-03-20T11:57:25,198  INFO SignalModelFactoryImpl:59 Creating LaemmerSignalController
2026-03-20T11:57:25,198  INFO SignalModelFactoryImpl:59 Creating LaemmerSignalController
2026-03-20T11:57:25,198  INFO SignalModelFactoryImpl:59 Creating LaemmerSignalController
2026-03-20T11:57:25,198  INFO SignalModelFactoryImpl:59 Creating LaemmerSignalController
2026-03-20T11:57:25,198  INFO SignalModelFactoryImpl:59 Creating LaemmerSignalController
2026-03-20T11:57:25,198  INFO SignalModelFactoryImpl:59 Creating LaemmerSignalController
2026-03-20T11:57:25,198  INFO SignalModelFactoryImpl:59 Creating LaemmerSignalController
2026-03-20T11:57:25,198  INFO SignalModelFactoryImpl:59 Creating LaemmerSignalController
2026-03-20T11:57:25,198  INFO SignalModelFactoryImpl:59 Creating LaemmerSignalController
2026-03-20T11:57:25,198  INFO SignalModelFactoryImpl:59 Creating LaemmerSignalController
2026-03-20T11:57:25,198  INFO SignalModelFactoryImpl:59 Creating LaemmerSignalController
2026-03-20T11:57:25,198  INFO SignalModelFactoryImpl:59 Creating LaemmerSignalController
2026-03-20T11:57:25,198  INFO SignalModelFactoryImpl:59 Creating LaemmerSignalController
2026-03-20T11:57:25,198  INFO SignalModelFactoryImpl:59 Creating LaemmerSignalController
2026-03-20T11:57:25,198  INFO SignalModelFactoryImpl:59 Creating LaemmerSignalController
2026-03-20T11:57:25,198  INFO SignalModelFactoryImpl:59 Creating LaemmerSignalController
2026-03-20T11:57:25,198  INFO SignalModelFactoryImpl:59 Creating LaemmerSignalController
2026-03-20T11:57:25,198  INFO SignalModelFactoryImpl:59 Creating LaemmerSignalController
2026-03-20T11:57:25,198  INFO SignalModelFactoryImpl:59 Creating LaemmerSignalController
2026-03-20T11:57:25,199  INFO SignalModelFactoryImpl:59 Creating LaemmerSignalController
2026-03-20T11:57:25,199  INFO SignalModelFactoryImpl:59 Creating LaemmerSignalController
2026-03-20T11:57:25,199  INFO SignalModelFactoryImpl:59 Creating LaemmerSignalController
2026-03-20T11:57:25,199  INFO SignalModelFactoryImpl:59 Creating LaemmerSignalController
2026-03-20T11:57:25,199  INFO SignalModelFactoryImpl:59 Creating LaemmerSignalController
2026-03-20T11:57:25,199  INFO SignalModelFactoryImpl:59 Creating LaemmerSignalController
2026-03-20T11:57:25,199  INFO SignalModelFactoryImpl:59 Creating LaemmerSignalController
2026-03-20T11:57:25,199  INFO SignalModelFactoryImpl:59 Creating LaemmerSignalController
2026-03-20T11:57:25,199  INFO SignalModelFactoryImpl:59 Creating LaemmerSignalController
2026-03-20T11:57:25,199  INFO SignalModelFactoryImpl:59 Creating LaemmerSignalController
2026-03-20T11:57:25,199  INFO SignalModelFactoryImpl:59 Creating LaemmerSignalController
2026-03-20T11:57:25,199  INFO SignalModelFactoryImpl:59 Creating LaemmerSignalController
2026-03-20T11:57:25,199  INFO SignalModelFactoryImpl:59 Creating LaemmerSignalController
2026-03-20T11:57:25,199  INFO SignalModelFactoryImpl:59 Creating LaemmerSignalController
2026-03-20T11:57:25,199  INFO SignalModelFactoryImpl:59 Creating LaemmerSignalController
2026-03-20T11:57:25,199  INFO SignalModelFactoryImpl:59 Creating LaemmerSignalController
2026-03-20T11:57:25,199  INFO SignalModelFactoryImpl:59 Creating LaemmerSignalController
2026-03-20T11:57:25,199  INFO SignalModelFactoryImpl:59 Creating LaemmerSignalController
2026-03-20T11:57:25,199  INFO SignalModelFactoryImpl:59 Creating LaemmerSignalController
2026-03-20T11:57:25,199  INFO SignalModelFactoryImpl:59 Creating LaemmerSignalController
2026-03-20T11:57:25,199  INFO SignalModelFactoryImpl:59 Creating LaemmerSignalController
2026-03-20T11:57:25,199  INFO SignalModelFactoryImpl:59 Creating LaemmerSignalController
2026-03-20T11:57:25,199  INFO SignalModelFactoryImpl:59 Creating LaemmerSignalController
2026-03-20T11:57:25,199  INFO SignalModelFactoryImpl:59 Creating LaemmerSignalController
2026-03-20T11:57:25,199  INFO SignalModelFactoryImpl:59 Creating LaemmerSignalController
2026-03-20T11:57:25,199  INFO SignalModelFactoryImpl:59 Creating LaemmerSignalController
2026-03-20T11:57:25,199  INFO SignalModelFactoryImpl:59 Creating LaemmerSignalController
2026-03-20T11:57:25,199  INFO SignalModelFactoryImpl:59 Creating LaemmerSignalController
2026-03-20T11:57:25,199  INFO SignalModelFactoryImpl:59 Creating LaemmerSignalController
2026-03-20T11:57:25,199  INFO SignalModelFactoryImpl:59 Creating LaemmerSignalController
2026-03-20T11:57:25,200  INFO SignalModelFactoryImpl:59 Creating LaemmerSignalController
2026-03-20T11:57:25,200  INFO SignalModelFactoryImpl:59 Creating LaemmerSignalController
2026-03-20T11:57:25,200  INFO SignalModelFactoryImpl:59 Creating LaemmerSignalController
2026-03-20T11:57:25,200  INFO SignalModelFactoryImpl:59 Creating LaemmerSignalController
2026-03-20T11:57:25,200  INFO SignalModelFactoryImpl:59 Creating LaemmerSignalController
2026-03-20T11:57:25,200  INFO SignalModelFactoryImpl:59 Creating LaemmerSignalController
2026-03-20T11:57:25,200  INFO SignalModelFactoryImpl:59 Creating LaemmerSignalController
2026-03-20T11:57:25,200  INFO SignalModelFactoryImpl:59 Creating LaemmerSignalController
2026-03-20T11:57:25,200  INFO SignalModelFactoryImpl:59 Creating LaemmerSignalController
2026-03-20T11:57:25,200  INFO SignalModelFactoryImpl:59 Creating LaemmerSignalController
2026-03-20T11:57:25,200  INFO SignalModelFactoryImpl:59 Creating LaemmerSignalController
2026-03-20T11:57:25,200  INFO SignalModelFactoryImpl:59 Creating LaemmerSignalController
2026-03-20T11:57:25,200  INFO SignalModelFactoryImpl:59 Creating LaemmerSignalController
2026-03-20T11:57:25,200  INFO SignalModelFactoryImpl:59 Creating LaemmerSignalController
2026-03-20T11:57:25,200  INFO SignalModelFactoryImpl:59 Creating LaemmerSignalController
2026-03-20T11:57:25,200  INFO SignalModelFactoryImpl:59 Creating LaemmerSignalController
2026-03-20T11:57:25,200  INFO SignalModelFactoryImpl:59 Creating LaemmerSignalController
2026-03-20T11:57:25,200  INFO SignalModelFactoryImpl:59 Creating LaemmerSignalController
2026-03-20T11:57:25,200  INFO SignalModelFactoryImpl:59 Creating LaemmerSignalController
2026-03-20T11:57:25,200  INFO SignalModelFactoryImpl:59 Creating LaemmerSignalController
2026-03-20T11:57:25,200  INFO SignalModelFactoryImpl:59 Creating LaemmerSignalController
2026-03-20T11:57:25,200  INFO SignalModelFactoryImpl:59 Creating LaemmerSignalController
2026-03-20T11:57:25,200  INFO SignalModelFactoryImpl:59 Creating LaemmerSignalController
2026-03-20T11:57:25,200  INFO SignalModelFactoryImpl:59 Creating LaemmerSignalController
2026-03-20T11:57:25,200  INFO SignalModelFactoryImpl:59 Creating LaemmerSignalController
2026-03-20T11:57:25,200  INFO SignalModelFactoryImpl:59 Creating LaemmerSignalController
2026-03-20T11:57:25,200  INFO SignalModelFactoryImpl:59 Creating LaemmerSignalController
2026-03-20T11:57:25,200  INFO SignalModelFactoryImpl:59 Creating LaemmerSignalController
2026-03-20T11:57:25,200  INFO SignalModelFactoryImpl:59 Creating LaemmerSignalController
2026-03-20T11:57:25,200  INFO SignalModelFactoryImpl:59 Creating LaemmerSignalController
2026-03-20T11:57:25,201  INFO SignalModelFactoryImpl:59 Creating LaemmerSignalController
2026-03-20T11:57:25,201  INFO SignalModelFactoryImpl:59 Creating LaemmerSignalController
2026-03-20T11:57:25,201  INFO SignalModelFactoryImpl:59 Creating LaemmerSignalController
2026-03-20T11:57:25,201  INFO SignalModelFactoryImpl:59 Creating LaemmerSignalController
2026-03-20T11:57:25,201  INFO SignalModelFactoryImpl:59 Creating LaemmerSignalController
2026-03-20T11:57:25,201  INFO SignalModelFactoryImpl:59 Creating LaemmerSignalController
2026-03-20T11:57:25,201  INFO SignalModelFactoryImpl:59 Creating LaemmerSignalController
2026-03-20T11:57:25,201  INFO SignalModelFactoryImpl:59 Creating LaemmerSignalController
2026-03-20T11:57:25,201  INFO SignalModelFactoryImpl:59 Creating LaemmerSignalController
2026-03-20T11:57:25,201  INFO SignalModelFactoryImpl:59 Creating LaemmerSignalController
2026-03-20T11:57:25,201  INFO SignalModelFactoryImpl:59 Creating LaemmerSignalController
2026-03-20T11:57:25,201  INFO SignalModelFactoryImpl:59 Creating LaemmerSignalController
2026-03-20T11:57:25,201  INFO SignalModelFactoryImpl:59 Creating LaemmerSignalController
2026-03-20T11:57:25,201  INFO SignalModelFactoryImpl:59 Creating LaemmerSignalController
2026-03-20T11:57:25,201  INFO SignalModelFactoryImpl:59 Creating LaemmerSignalController
2026-03-20T11:57:25,201  INFO SignalModelFactoryImpl:59 Creating LaemmerSignalController
2026-03-20T11:57:25,201  INFO SignalModelFactoryImpl:59 Creating LaemmerSignalController
2026-03-20T11:57:25,201  INFO SignalModelFactoryImpl:59 Creating LaemmerSignalController
2026-03-20T11:57:25,201  INFO SignalModelFactoryImpl:59 Creating LaemmerSignalController
2026-03-20T11:57:25,201  INFO SignalModelFactoryImpl:59 Creating LaemmerSignalController
2026-03-20T11:57:25,201  INFO SignalModelFactoryImpl:59 Creating LaemmerSignalController
2026-03-20T11:57:25,201  INFO SignalModelFactoryImpl:59 Creating LaemmerSignalController
2026-03-20T11:57:25,201  INFO SignalModelFactoryImpl:59 Creating LaemmerSignalController
2026-03-20T11:57:25,201  INFO SignalModelFactoryImpl:59 Creating LaemmerSignalController
2026-03-20T11:57:25,202  INFO SignalModelFactoryImpl:59 Creating LaemmerSignalController
2026-03-20T11:57:25,202  INFO SignalModelFactoryImpl:59 Creating LaemmerSignalController
2026-03-20T11:57:25,202  INFO SignalModelFactoryImpl:59 Creating LaemmerSignalController
2026-03-20T11:57:25,202  INFO SignalModelFactoryImpl:59 Creating LaemmerSignalController
2026-03-20T11:57:25,202  INFO SignalModelFactoryImpl:59 Creating LaemmerSignalController
2026-03-20T11:57:25,202  INFO SignalModelFactoryImpl:59 Creating LaemmerSignalController
2026-03-20T11:57:25,202  INFO SignalModelFactoryImpl:59 Creating LaemmerSignalController
2026-03-20T11:57:25,202  INFO SignalModelFactoryImpl:59 Creating LaemmerSignalController
2026-03-20T11:57:25,202  INFO SignalModelFactoryImpl:59 Creating LaemmerSignalController
2026-03-20T11:57:25,202  INFO SignalModelFactoryImpl:59 Creating LaemmerSignalController
2026-03-20T11:57:25,202  INFO SignalModelFactoryImpl:59 Creating LaemmerSignalController
2026-03-20T11:57:25,202  INFO SignalModelFactoryImpl:59 Creating LaemmerSignalController
2026-03-20T11:57:25,202  INFO SignalModelFactoryImpl:59 Creating LaemmerSignalController
2026-03-20T11:57:25,202  INFO SignalModelFactoryImpl:59 Creating LaemmerSignalController
2026-03-20T11:57:25,202  INFO SignalModelFactoryImpl:59 Creating LaemmerSignalController
2026-03-20T11:57:25,202  INFO SignalModelFactoryImpl:59 Creating LaemmerSignalController
2026-03-20T11:57:25,202  INFO SignalModelFactoryImpl:59 Creating LaemmerSignalController
2026-03-20T11:57:25,202  INFO SignalModelFactoryImpl:59 Creating LaemmerSignalController
2026-03-20T11:57:25,202  INFO SignalModelFactoryImpl:59 Creating LaemmerSignalController
2026-03-20T11:57:25,202  INFO SignalModelFactoryImpl:59 Creating LaemmerSignalController
2026-03-20T11:57:25,202  INFO SignalModelFactoryImpl:59 Creating LaemmerSignalController
2026-03-20T11:57:25,202  INFO SignalModelFactoryImpl:59 Creating LaemmerSignalController
2026-03-20T11:57:25,202  INFO SignalModelFactoryImpl:59 Creating LaemmerSignalController
2026-03-20T11:57:25,202  INFO SignalModelFactoryImpl:59 Creating LaemmerSignalController
2026-03-20T11:57:25,202  INFO SignalModelFactoryImpl:59 Creating LaemmerSignalController
2026-03-20T11:57:25,202  INFO SignalModelFactoryImpl:59 Creating LaemmerSignalController
2026-03-20T11:57:25,202  INFO SignalModelFactoryImpl:59 Creating LaemmerSignalController
2026-03-20T11:57:25,202  INFO SignalModelFactoryImpl:59 Creating LaemmerSignalController
2026-03-20T11:57:25,202  INFO SignalModelFactoryImpl:59 Creating LaemmerSignalController
2026-03-20T11:57:25,202  INFO SignalModelFactoryImpl:59 Creating LaemmerSignalController
2026-03-20T11:57:25,202  INFO SignalModelFactoryImpl:59 Creating LaemmerSignalController
2026-03-20T11:57:25,202  INFO SignalModelFactoryImpl:59 Creating LaemmerSignalController
2026-03-20T11:57:25,203  INFO SignalModelFactoryImpl:59 Creating LaemmerSignalController
2026-03-20T11:57:25,203  INFO SignalModelFactoryImpl:59 Creating LaemmerSignalController
2026-03-20T11:57:25,203  INFO SignalModelFactoryImpl:59 Creating LaemmerSignalController
2026-03-20T11:57:25,203  INFO SignalModelFactoryImpl:59 Creating LaemmerSignalController
2026-03-20T11:57:25,203  INFO SignalModelFactoryImpl:59 Creating LaemmerSignalController
2026-03-20T11:57:25,203  INFO SignalModelFactoryImpl:59 Creating LaemmerSignalController
2026-03-20T11:57:25,203  INFO SignalModelFactoryImpl:59 Creating LaemmerSignalController
2026-03-20T11:57:25,203  INFO SignalModelFactoryImpl:59 Creating LaemmerSignalController
2026-03-20T11:57:25,203  INFO SignalModelFactoryImpl:59 Creating LaemmerSignalController
2026-03-20T11:57:25,203  INFO SignalModelFactoryImpl:59 Creating LaemmerSignalController
2026-03-20T11:57:25,203  INFO SignalModelFactoryImpl:59 Creating LaemmerSignalController
2026-03-20T11:57:25,203  INFO SignalModelFactoryImpl:59 Creating LaemmerSignalController
2026-03-20T11:57:25,203  INFO SignalModelFactoryImpl:59 Creating LaemmerSignalController
2026-03-20T11:57:25,203  INFO SignalModelFactoryImpl:59 Creating LaemmerSignalController
2026-03-20T11:57:25,203  INFO SignalModelFactoryImpl:59 Creating LaemmerSignalController
2026-03-20T11:57:25,203  INFO SignalModelFactoryImpl:59 Creating LaemmerSignalController
2026-03-20T11:57:25,203  INFO SignalModelFactoryImpl:59 Creating LaemmerSignalController
2026-03-20T11:57:25,203  INFO SignalModelFactoryImpl:59 Creating LaemmerSignalController
2026-03-20T11:57:25,203  INFO SignalModelFactoryImpl:59 Creating LaemmerSignalController
2026-03-20T11:57:25,203  INFO SignalModelFactoryImpl:59 Creating LaemmerSignalController
2026-03-20T11:57:25,203  INFO SignalModelFactoryImpl:59 Creating LaemmerSignalController
2026-03-20T11:57:25,203  INFO SignalModelFactoryImpl:59 Creating LaemmerSignalController
2026-03-20T11:57:25,203  INFO SignalModelFactoryImpl:59 Creating LaemmerSignalController
2026-03-20T11:57:25,203  INFO SignalModelFactoryImpl:59 Creating LaemmerSignalController
2026-03-20T11:57:25,203  INFO SignalModelFactoryImpl:59 Creating LaemmerSignalController
2026-03-20T11:57:25,203  INFO SignalModelFactoryImpl:59 Creating LaemmerSignalController
2026-03-20T11:57:25,203  INFO SignalModelFactoryImpl:59 Creating LaemmerSignalController
2026-03-20T11:57:25,203  INFO SignalModelFactoryImpl:59 Creating LaemmerSignalController
2026-03-20T11:57:25,203  INFO SignalModelFactoryImpl:59 Creating LaemmerSignalController
2026-03-20T11:57:25,203  INFO SignalModelFactoryImpl:59 Creating LaemmerSignalController
2026-03-20T11:57:25,203  INFO SignalModelFactoryImpl:59 Creating LaemmerSignalController
2026-03-20T11:57:25,203  INFO SignalModelFactoryImpl:59 Creating LaemmerSignalController
2026-03-20T11:57:25,203  INFO SignalModelFactoryImpl:59 Creating LaemmerSignalController
2026-03-20T11:57:25,204  INFO SignalModelFactoryImpl:59 Creating LaemmerSignalController
2026-03-20T11:57:25,204  INFO SignalModelFactoryImpl:59 Creating LaemmerSignalController
2026-03-20T11:57:25,204  INFO SignalModelFactoryImpl:59 Creating LaemmerSignalController
2026-03-20T11:57:25,204  INFO SignalModelFactoryImpl:59 Creating LaemmerSignalController
2026-03-20T11:57:25,204  INFO SignalModelFactoryImpl:59 Creating LaemmerSignalController
2026-03-20T11:57:25,204  INFO SignalModelFactoryImpl:59 Creating LaemmerSignalController
2026-03-20T11:57:25,204  INFO SignalModelFactoryImpl:59 Creating LaemmerSignalController
2026-03-20T11:57:25,204  INFO SignalModelFactoryImpl:59 Creating LaemmerSignalController
2026-03-20T11:57:25,204  INFO SignalModelFactoryImpl:59 Creating LaemmerSignalController
2026-03-20T11:57:25,204  INFO SignalModelFactoryImpl:59 Creating LaemmerSignalController
2026-03-20T11:57:25,204  INFO SignalModelFactoryImpl:59 Creating LaemmerSignalController
2026-03-20T11:57:25,204  INFO SignalModelFactoryImpl:59 Creating LaemmerSignalController
2026-03-20T11:57:25,204  INFO SignalModelFactoryImpl:59 Creating LaemmerSignalController
2026-03-20T11:57:25,204  INFO SignalModelFactoryImpl:59 Creating LaemmerSignalController
2026-03-20T11:57:25,204  INFO SignalModelFactoryImpl:59 Creating LaemmerSignalController
2026-03-20T11:57:25,204  INFO SignalModelFactoryImpl:59 Creating LaemmerSignalController
2026-03-20T11:57:25,204  INFO SignalModelFactoryImpl:59 Creating LaemmerSignalController
2026-03-20T11:57:25,204  INFO SignalModelFactoryImpl:59 Creating LaemmerSignalController
2026-03-20T11:57:25,204  INFO SignalModelFactoryImpl:59 Creating LaemmerSignalController
2026-03-20T11:57:25,204  INFO SignalModelFactoryImpl:59 Creating LaemmerSignalController
2026-03-20T11:57:25,204  INFO SignalModelFactoryImpl:59 Creating LaemmerSignalController
2026-03-20T11:57:25,204  INFO SignalModelFactoryImpl:59 Creating LaemmerSignalController
2026-03-20T11:57:25,204  INFO SignalModelFactoryImpl:59 Creating LaemmerSignalController
2026-03-20T11:57:25,204  INFO SignalModelFactoryImpl:59 Creating LaemmerSignalController
2026-03-20T11:57:25,204  INFO SignalModelFactoryImpl:59 Creating LaemmerSignalController
2026-03-20T11:57:25,204  INFO SignalModelFactoryImpl:59 Creating LaemmerSignalController
2026-03-20T11:57:25,204  INFO SignalModelFactoryImpl:59 Creating LaemmerSignalController
2026-03-20T11:57:25,204  INFO SignalModelFactoryImpl:59 Creating LaemmerSignalController
2026-03-20T11:57:25,204  INFO SignalModelFactoryImpl:59 Creating LaemmerSignalController
2026-03-20T11:57:25,204  INFO SignalModelFactoryImpl:59 Creating LaemmerSignalController
2026-03-20T11:57:25,204  INFO SignalModelFactoryImpl:59 Creating LaemmerSignalController
2026-03-20T11:57:25,204  INFO SignalModelFactoryImpl:59 Creating LaemmerSignalController
2026-03-20T11:57:25,204  INFO SignalModelFactoryImpl:59 Creating LaemmerSignalController
2026-03-20T11:57:25,204  INFO SignalModelFactoryImpl:59 Creating LaemmerSignalController
2026-03-20T11:57:25,205  INFO SignalModelFactoryImpl:59 Creating LaemmerSignalController
2026-03-20T11:57:25,205  INFO SignalModelFactoryImpl:59 Creating LaemmerSignalController
2026-03-20T11:57:25,205  INFO SignalModelFactoryImpl:59 Creating LaemmerSignalController
2026-03-20T11:57:25,205  INFO SignalModelFactoryImpl:59 Creating LaemmerSignalController
2026-03-20T11:57:25,205  INFO SignalModelFactoryImpl:59 Creating LaemmerSignalController
2026-03-20T11:57:25,205  INFO SignalModelFactoryImpl:59 Creating LaemmerSignalController
2026-03-20T11:57:25,205  INFO SignalModelFactoryImpl:59 Creating LaemmerSignalController
2026-03-20T11:57:25,205  INFO SignalModelFactoryImpl:59 Creating LaemmerSignalController
2026-03-20T11:57:25,205  INFO SignalModelFactoryImpl:59 Creating LaemmerSignalController
2026-03-20T11:57:25,205  INFO SignalModelFactoryImpl:59 Creating LaemmerSignalController
2026-03-20T11:57:25,205  INFO SignalModelFactoryImpl:59 Creating LaemmerSignalController
2026-03-20T11:57:25,205  INFO SignalModelFactoryImpl:59 Creating LaemmerSignalController
2026-03-20T11:57:25,205  INFO SignalModelFactoryImpl:59 Creating LaemmerSignalController
2026-03-20T11:57:25,205  INFO SignalModelFactoryImpl:59 Creating LaemmerSignalController
2026-03-20T11:57:25,205  INFO SignalModelFactoryImpl:59 Creating LaemmerSignalController
2026-03-20T11:57:25,205  INFO SignalModelFactoryImpl:59 Creating LaemmerSignalController
2026-03-20T11:57:25,205  INFO SignalModelFactoryImpl:59 Creating LaemmerSignalController
2026-03-20T11:57:25,205  INFO SignalModelFactoryImpl:59 Creating LaemmerSignalController
2026-03-20T11:57:25,205  INFO SignalModelFactoryImpl:59 Creating LaemmerSignalController
2026-03-20T11:57:25,205  INFO SignalModelFactoryImpl:59 Creating LaemmerSignalController
2026-03-20T11:57:25,205  INFO SignalModelFactoryImpl:59 Creating LaemmerSignalController
2026-03-20T11:57:25,205  INFO SignalModelFactoryImpl:59 Creating LaemmerSignalController
2026-03-20T11:57:25,205  INFO SignalModelFactoryImpl:59 Creating LaemmerSignalController
2026-03-20T11:57:25,205  INFO SignalModelFactoryImpl:59 Creating LaemmerSignalController
2026-03-20T11:57:25,205  INFO SignalModelFactoryImpl:59 Creating LaemmerSignalController
2026-03-20T11:57:25,205  INFO SignalModelFactoryImpl:59 Creating LaemmerSignalController
2026-03-20T11:57:25,205  INFO SignalModelFactoryImpl:59 Creating LaemmerSignalController
2026-03-20T11:57:25,205  INFO SignalModelFactoryImpl:59 Creating LaemmerSignalController
2026-03-20T11:57:25,205  INFO SignalModelFactoryImpl:59 Creating LaemmerSignalController
2026-03-20T11:57:25,205  INFO SignalModelFactoryImpl:59 Creating LaemmerSignalController
2026-03-20T11:57:25,205  INFO SignalModelFactoryImpl:59 Creating LaemmerSignalController
2026-03-20T11:57:25,205  INFO SignalModelFactoryImpl:59 Creating LaemmerSignalController
2026-03-20T11:57:25,205  INFO SignalModelFactoryImpl:59 Creating LaemmerSignalController
2026-03-20T11:57:25,205  INFO SignalModelFactoryImpl:59 Creating LaemmerSignalController
2026-03-20T11:57:25,205  INFO SignalModelFactoryImpl:59 Creating LaemmerSignalController
2026-03-20T11:57:25,205  INFO SignalModelFactoryImpl:59 Creating LaemmerSignalController
2026-03-20T11:57:25,206  INFO SignalModelFactoryImpl:59 Creating LaemmerSignalController
2026-03-20T11:57:25,206  INFO SignalModelFactoryImpl:59 Creating LaemmerSignalController
2026-03-20T11:57:25,206  INFO SignalModelFactoryImpl:59 Creating LaemmerSignalController
2026-03-20T11:57:25,206  INFO SignalModelFactoryImpl:59 Creating LaemmerSignalController
2026-03-20T11:57:25,206  INFO SignalModelFactoryImpl:59 Creating LaemmerSignalController
2026-03-20T11:57:25,206  INFO SignalModelFactoryImpl:59 Creating LaemmerSignalController
2026-03-20T11:57:25,206  INFO SignalModelFactoryImpl:59 Creating LaemmerSignalController
2026-03-20T11:57:25,206  INFO SignalModelFactoryImpl:59 Creating LaemmerSignalController
2026-03-20T11:57:25,206  INFO SignalModelFactoryImpl:59 Creating LaemmerSignalController
2026-03-20T11:57:25,206  INFO SignalModelFactoryImpl:59 Creating LaemmerSignalController
2026-03-20T11:57:25,206  INFO SignalModelFactoryImpl:59 Creating LaemmerSignalController
2026-03-20T11:57:25,206  INFO SignalModelFactoryImpl:59 Creating LaemmerSignalController
2026-03-20T11:57:25,206  INFO SignalModelFactoryImpl:59 Creating LaemmerSignalController
2026-03-20T11:57:25,206  INFO SignalModelFactoryImpl:59 Creating LaemmerSignalController
2026-03-20T11:57:25,206  INFO SignalModelFactoryImpl:59 Creating LaemmerSignalController
2026-03-20T11:57:25,206  INFO SignalModelFactoryImpl:59 Creating LaemmerSignalController
2026-03-20T11:57:25,206  INFO SignalModelFactoryImpl:59 Creating LaemmerSignalController
2026-03-20T11:57:25,206  INFO SignalModelFactoryImpl:59 Creating LaemmerSignalController
2026-03-20T11:57:25,206  INFO SignalModelFactoryImpl:59 Creating LaemmerSignalController
2026-03-20T11:57:25,206  INFO SignalModelFactoryImpl:59 Creating LaemmerSignalController
2026-03-20T11:57:25,206  INFO SignalModelFactoryImpl:59 Creating LaemmerSignalController
2026-03-20T11:57:25,206  INFO SignalModelFactoryImpl:59 Creating LaemmerSignalController
2026-03-20T11:57:25,206  INFO SignalModelFactoryImpl:59 Creating LaemmerSignalController
2026-03-20T11:57:25,206  INFO SignalModelFactoryImpl:59 Creating LaemmerSignalController
2026-03-20T11:57:25,206  INFO SignalModelFactoryImpl:59 Creating LaemmerSignalController
2026-03-20T11:57:25,206  INFO SignalModelFactoryImpl:59 Creating LaemmerSignalController
2026-03-20T11:57:25,206  INFO SignalModelFactoryImpl:59 Creating LaemmerSignalController
2026-03-20T11:57:25,206  INFO SignalModelFactoryImpl:59 Creating LaemmerSignalController
2026-03-20T11:57:25,206  INFO SignalModelFactoryImpl:59 Creating LaemmerSignalController
2026-03-20T11:57:25,206  INFO SignalModelFactoryImpl:59 Creating LaemmerSignalController
2026-03-20T11:57:25,206  INFO SignalModelFactoryImpl:59 Creating LaemmerSignalController
2026-03-20T11:57:25,206  INFO SignalModelFactoryImpl:59 Creating LaemmerSignalController
2026-03-20T11:57:25,206  INFO SignalModelFactoryImpl:59 Creating LaemmerSignalController
2026-03-20T11:57:25,206  INFO SignalModelFactoryImpl:59 Creating LaemmerSignalController
2026-03-20T11:57:25,206  INFO SignalModelFactoryImpl:59 Creating LaemmerSignalController
2026-03-20T11:57:25,206  INFO SignalModelFactoryImpl:59 Creating LaemmerSignalController
2026-03-20T11:57:25,206  INFO SignalModelFactoryImpl:59 Creating LaemmerSignalController
2026-03-20T11:57:25,206  INFO SignalModelFactoryImpl:59 Creating LaemmerSignalController
2026-03-20T11:57:25,206  INFO SignalModelFactoryImpl:59 Creating LaemmerSignalController
2026-03-20T11:57:25,207  INFO SignalModelFactoryImpl:59 Creating LaemmerSignalController
2026-03-20T11:57:25,207  INFO SignalModelFactoryImpl:59 Creating LaemmerSignalController
2026-03-20T11:57:25,207  INFO SignalModelFactoryImpl:59 Creating LaemmerSignalController
2026-03-20T11:57:25,207  INFO SignalModelFactoryImpl:59 Creating LaemmerSignalController
2026-03-20T11:57:25,207  INFO SignalModelFactoryImpl:59 Creating LaemmerSignalController
2026-03-20T11:57:25,207  INFO SignalModelFactoryImpl:59 Creating LaemmerSignalController
2026-03-20T11:57:25,207  INFO SignalModelFactoryImpl:59 Creating LaemmerSignalController
2026-03-20T11:57:25,207  INFO SignalModelFactoryImpl:59 Creating LaemmerSignalController
2026-03-20T11:57:25,207  INFO SignalModelFactoryImpl:59 Creating LaemmerSignalController
2026-03-20T11:57:25,207  INFO SignalModelFactoryImpl:59 Creating LaemmerSignalController
2026-03-20T11:57:25,207  INFO SignalModelFactoryImpl:59 Creating LaemmerSignalController
2026-03-20T11:57:25,207  INFO SignalModelFactoryImpl:59 Creating LaemmerSignalController
2026-03-20T11:57:25,207  INFO SignalModelFactoryImpl:59 Creating LaemmerSignalController
2026-03-20T11:57:25,207  INFO SignalModelFactoryImpl:59 Creating LaemmerSignalController
2026-03-20T11:57:25,207  INFO SignalModelFactoryImpl:59 Creating LaemmerSignalController
2026-03-20T11:57:25,207  INFO SignalModelFactoryImpl:59 Creating LaemmerSignalController
2026-03-20T11:57:25,207  INFO SignalModelFactoryImpl:59 Creating LaemmerSignalController
2026-03-20T11:57:25,207  INFO SignalModelFactoryImpl:59 Creating LaemmerSignalController
2026-03-20T11:57:25,207  INFO SignalModelFactoryImpl:59 Creating LaemmerSignalController
2026-03-20T11:57:25,207  INFO SignalModelFactoryImpl:59 Creating LaemmerSignalController
2026-03-20T11:57:25,207  INFO SignalModelFactoryImpl:59 Creating LaemmerSignalController
2026-03-20T11:57:25,207  INFO SignalModelFactoryImpl:59 Creating LaemmerSignalController
2026-03-20T11:57:25,207  INFO SignalModelFactoryImpl:59 Creating LaemmerSignalController
2026-03-20T11:57:25,207  INFO SignalModelFactoryImpl:59 Creating LaemmerSignalController
2026-03-20T11:57:25,207  INFO SignalModelFactoryImpl:59 Creating LaemmerSignalController
2026-03-20T11:57:25,207  INFO SignalModelFactoryImpl:59 Creating LaemmerSignalController
2026-03-20T11:57:25,207  INFO SignalModelFactoryImpl:59 Creating LaemmerSignalController
2026-03-20T11:57:25,207  INFO SignalModelFactoryImpl:59 Creating LaemmerSignalController
2026-03-20T11:57:25,207  INFO SignalModelFactoryImpl:59 Creating LaemmerSignalController
2026-03-20T11:57:25,207  INFO SignalModelFactoryImpl:59 Creating LaemmerSignalController
2026-03-20T11:57:25,207  INFO SignalModelFactoryImpl:59 Creating LaemmerSignalController
2026-03-20T11:57:25,207  INFO SignalModelFactoryImpl:59 Creating LaemmerSignalController
2026-03-20T11:57:25,207  INFO SignalModelFactoryImpl:59 Creating LaemmerSignalController
2026-03-20T11:57:25,207  INFO SignalModelFactoryImpl:59 Creating LaemmerSignalController
2026-03-20T11:57:25,207  INFO SignalModelFactoryImpl:59 Creating LaemmerSignalController
2026-03-20T11:57:25,207  INFO SignalModelFactoryImpl:59 Creating LaemmerSignalController
2026-03-20T11:57:25,207  INFO SignalModelFactoryImpl:59 Creating LaemmerSignalController
2026-03-20T11:57:25,207  INFO SignalModelFactoryImpl:59 Creating LaemmerSignalController
2026-03-20T11:57:25,208  INFO SignalModelFactoryImpl:59 Creating LaemmerSignalController
2026-03-20T11:57:25,208  INFO SignalModelFactoryImpl:59 Creating LaemmerSignalController
2026-03-20T11:57:25,208  INFO SignalModelFactoryImpl:59 Creating LaemmerSignalController
2026-03-20T11:57:25,208  INFO SignalModelFactoryImpl:59 Creating LaemmerSignalController
2026-03-20T11:57:25,208  INFO SignalModelFactoryImpl:59 Creating LaemmerSignalController
2026-03-20T11:57:25,208  INFO SignalModelFactoryImpl:59 Creating LaemmerSignalController
2026-03-20T11:57:25,208  INFO SignalModelFactoryImpl:59 Creating LaemmerSignalController
2026-03-20T11:57:25,208  INFO SignalModelFactoryImpl:59 Creating LaemmerSignalController
2026-03-20T11:57:25,208  INFO SignalModelFactoryImpl:59 Creating LaemmerSignalController
2026-03-20T11:57:25,208  INFO SignalModelFactoryImpl:59 Creating LaemmerSignalController
2026-03-20T11:57:25,208  INFO SignalModelFactoryImpl:59 Creating LaemmerSignalController
2026-03-20T11:57:25,208  INFO SignalModelFactoryImpl:59 Creating LaemmerSignalController
2026-03-20T11:57:25,208  INFO SignalModelFactoryImpl:59 Creating LaemmerSignalController
2026-03-20T11:57:25,208  INFO SignalModelFactoryImpl:59 Creating LaemmerSignalController
2026-03-20T11:57:25,208  INFO SignalModelFactoryImpl:59 Creating LaemmerSignalController
2026-03-20T11:57:25,208  INFO SignalModelFactoryImpl:59 Creating LaemmerSignalController
2026-03-20T11:57:25,208  INFO SignalModelFactoryImpl:59 Creating LaemmerSignalController
2026-03-20T11:57:25,208  INFO SignalModelFactoryImpl:59 Creating LaemmerSignalController
2026-03-20T11:57:25,208  INFO SignalModelFactoryImpl:59 Creating LaemmerSignalController
2026-03-20T11:57:25,208  INFO SignalModelFactoryImpl:59 Creating LaemmerSignalController
2026-03-20T11:57:25,208  INFO SignalModelFactoryImpl:59 Creating LaemmerSignalController
2026-03-20T11:57:25,208  INFO SignalModelFactoryImpl:59 Creating LaemmerSignalController
2026-03-20T11:57:25,208  INFO SignalModelFactoryImpl:59 Creating LaemmerSignalController
2026-03-20T11:57:25,208  INFO SignalModelFactoryImpl:59 Creating LaemmerSignalController
2026-03-20T11:57:25,208  INFO SignalModelFactoryImpl:59 Creating LaemmerSignalController
2026-03-20T11:57:25,208  INFO SignalModelFactoryImpl:59 Creating LaemmerSignalController
2026-03-20T11:57:25,208  INFO SignalModelFactoryImpl:59 Creating LaemmerSignalController
2026-03-20T11:57:25,208  INFO SignalModelFactoryImpl:59 Creating LaemmerSignalController
2026-03-20T11:57:25,208  INFO SignalModelFactoryImpl:59 Creating LaemmerSignalController
2026-03-20T11:57:25,208  INFO SignalModelFactoryImpl:59 Creating LaemmerSignalController
2026-03-20T11:57:25,208  INFO SignalModelFactoryImpl:59 Creating LaemmerSignalController
2026-03-20T11:57:25,208  INFO SignalModelFactoryImpl:59 Creating LaemmerSignalController
2026-03-20T11:57:25,208  INFO SignalModelFactoryImpl:59 Creating LaemmerSignalController
2026-03-20T11:57:25,208  INFO SignalModelFactoryImpl:59 Creating LaemmerSignalController
2026-03-20T11:57:25,208  INFO SignalModelFactoryImpl:59 Creating LaemmerSignalController
2026-03-20T11:57:25,208  INFO SignalModelFactoryImpl:59 Creating LaemmerSignalController
2026-03-20T11:57:25,208  INFO SignalModelFactoryImpl:59 Creating LaemmerSignalController
2026-03-20T11:57:25,208  INFO SignalModelFactoryImpl:59 Creating LaemmerSignalController
2026-03-20T11:57:25,208  INFO SignalModelFactoryImpl:59 Creating LaemmerSignalController
2026-03-20T11:57:25,208  INFO SignalModelFactoryImpl:59 Creating LaemmerSignalController
2026-03-20T11:57:25,209  INFO SignalModelFactoryImpl:59 Creating LaemmerSignalController
2026-03-20T11:57:25,209  INFO SignalModelFactoryImpl:59 Creating LaemmerSignalController
2026-03-20T11:57:25,209  INFO SignalModelFactoryImpl:59 Creating LaemmerSignalController
2026-03-20T11:57:25,209  INFO SignalModelFactoryImpl:59 Creating LaemmerSignalController
2026-03-20T11:57:25,209  INFO SignalModelFactoryImpl:59 Creating LaemmerSignalController
2026-03-20T11:57:25,209  INFO SignalModelFactoryImpl:59 Creating LaemmerSignalController
2026-03-20T11:57:25,209  INFO SignalModelFactoryImpl:59 Creating LaemmerSignalController
2026-03-20T11:57:25,209  INFO SignalModelFactoryImpl:59 Creating LaemmerSignalController
2026-03-20T11:57:25,209  INFO SignalModelFactoryImpl:59 Creating LaemmerSignalController
2026-03-20T11:57:25,209  INFO SignalModelFactoryImpl:59 Creating LaemmerSignalController
2026-03-20T11:57:25,209  INFO SignalModelFactoryImpl:59 Creating LaemmerSignalController
2026-03-20T11:57:25,209  INFO SignalModelFactoryImpl:59 Creating LaemmerSignalController
2026-03-20T11:57:25,209  INFO SignalModelFactoryImpl:59 Creating LaemmerSignalController
2026-03-20T11:57:25,209  INFO SignalModelFactoryImpl:59 Creating LaemmerSignalController
2026-03-20T11:57:25,209  INFO SignalModelFactoryImpl:59 Creating LaemmerSignalController
2026-03-20T11:57:25,209  INFO SignalModelFactoryImpl:59 Creating LaemmerSignalController
2026-03-20T11:57:25,209  INFO SignalModelFactoryImpl:59 Creating LaemmerSignalController
2026-03-20T11:57:25,209  INFO SignalModelFactoryImpl:59 Creating LaemmerSignalController
2026-03-20T11:57:25,209  INFO SignalModelFactoryImpl:59 Creating LaemmerSignalController
2026-03-20T11:57:25,209  INFO SignalModelFactoryImpl:59 Creating LaemmerSignalController
2026-03-20T11:57:25,209  INFO SignalModelFactoryImpl:59 Creating LaemmerSignalController
2026-03-20T11:57:25,209  INFO SignalModelFactoryImpl:59 Creating LaemmerSignalController
2026-03-20T11:57:25,209  INFO SignalModelFactoryImpl:59 Creating LaemmerSignalController
2026-03-20T11:57:25,209  INFO SignalModelFactoryImpl:59 Creating LaemmerSignalController
2026-03-20T11:57:25,209  INFO SignalModelFactoryImpl:59 Creating LaemmerSignalController
2026-03-20T11:57:25,209  INFO SignalModelFactoryImpl:59 Creating LaemmerSignalController
2026-03-20T11:57:25,209  INFO SignalModelFactoryImpl:59 Creating LaemmerSignalController
2026-03-20T11:57:25,209  INFO SignalModelFactoryImpl:59 Creating LaemmerSignalController
2026-03-20T11:57:25,209  INFO SignalModelFactoryImpl:59 Creating LaemmerSignalController
2026-03-20T11:57:25,209  INFO SignalModelFactoryImpl:59 Creating LaemmerSignalController
2026-03-20T11:57:25,209  INFO SignalModelFactoryImpl:59 Creating LaemmerSignalController
2026-03-20T11:57:25,209  INFO SignalModelFactoryImpl:59 Creating LaemmerSignalController
2026-03-20T11:57:25,209  INFO SignalModelFactoryImpl:59 Creating LaemmerSignalController
2026-03-20T11:57:25,209  INFO SignalModelFactoryImpl:59 Creating LaemmerSignalController
2026-03-20T11:57:25,209  INFO SignalModelFactoryImpl:59 Creating LaemmerSignalController
2026-03-20T11:57:25,209  INFO SignalModelFactoryImpl:59 Creating LaemmerSignalController
2026-03-20T11:57:25,209  INFO SignalModelFactoryImpl:59 Creating LaemmerSignalController
2026-03-20T11:57:25,209  INFO SignalModelFactoryImpl:59 Creating LaemmerSignalController
2026-03-20T11:57:25,209  INFO SignalModelFactoryImpl:59 Creating LaemmerSignalController
2026-03-20T11:57:25,209  INFO SignalModelFactoryImpl:59 Creating LaemmerSignalController
2026-03-20T11:57:25,209  INFO SignalModelFactoryImpl:59 Creating LaemmerSignalController
2026-03-20T11:57:25,209  INFO SignalModelFactoryImpl:59 Creating LaemmerSignalController
2026-03-20T11:57:25,210  INFO SignalModelFactoryImpl:59 Creating LaemmerSignalController
2026-03-20T11:57:25,210  INFO SignalModelFactoryImpl:59 Creating LaemmerSignalController
2026-03-20T11:57:25,210  INFO SignalModelFactoryImpl:59 Creating LaemmerSignalController
2026-03-20T11:57:25,210  INFO SignalModelFactoryImpl:59 Creating LaemmerSignalController
2026-03-20T11:57:25,210  INFO SignalModelFactoryImpl:59 Creating LaemmerSignalController
2026-03-20T11:57:25,210  INFO SignalModelFactoryImpl:59 Creating LaemmerSignalController
2026-03-20T11:57:25,210  INFO SignalModelFactoryImpl:59 Creating LaemmerSignalController
2026-03-20T11:57:25,210  INFO SignalModelFactoryImpl:59 Creating LaemmerSignalController
2026-03-20T11:57:25,210  INFO SignalModelFactoryImpl:59 Creating LaemmerSignalController
2026-03-20T11:57:25,210  INFO SignalModelFactoryImpl:59 Creating LaemmerSignalController
2026-03-20T11:57:25,210  INFO SignalModelFactoryImpl:59 Creating LaemmerSignalController
2026-03-20T11:57:25,210  INFO SignalModelFactoryImpl:59 Creating LaemmerSignalController
2026-03-20T11:57:25,210  INFO SignalModelFactoryImpl:59 Creating LaemmerSignalController
2026-03-20T11:57:25,210  INFO SignalModelFactoryImpl:59 Creating LaemmerSignalController
2026-03-20T11:57:25,210  INFO SignalModelFactoryImpl:59 Creating LaemmerSignalController
2026-03-20T11:57:25,210  INFO SignalModelFactoryImpl:59 Creating LaemmerSignalController
2026-03-20T11:57:25,210  INFO SignalModelFactoryImpl:59 Creating LaemmerSignalController
2026-03-20T11:57:25,210  INFO SignalModelFactoryImpl:59 Creating LaemmerSignalController
2026-03-20T11:57:25,210  INFO SignalModelFactoryImpl:59 Creating LaemmerSignalController
2026-03-20T11:57:25,210  INFO SignalModelFactoryImpl:59 Creating LaemmerSignalController
2026-03-20T11:57:25,210  INFO SignalModelFactoryImpl:59 Creating LaemmerSignalController
2026-03-20T11:57:25,210  INFO SignalModelFactoryImpl:59 Creating LaemmerSignalController
2026-03-20T11:57:25,210  INFO SignalModelFactoryImpl:59 Creating LaemmerSignalController
2026-03-20T11:57:25,210  INFO SignalModelFactoryImpl:59 Creating LaemmerSignalController
2026-03-20T11:57:25,210  INFO SignalModelFactoryImpl:59 Creating LaemmerSignalController
2026-03-20T11:57:25,210  INFO SignalModelFactoryImpl:59 Creating LaemmerSignalController
2026-03-20T11:57:25,210  INFO SignalModelFactoryImpl:59 Creating LaemmerSignalController
2026-03-20T11:57:25,210  INFO SignalModelFactoryImpl:59 Creating LaemmerSignalController
2026-03-20T11:57:25,210  INFO SignalModelFactoryImpl:59 Creating LaemmerSignalController
2026-03-20T11:57:25,210  INFO SignalModelFactoryImpl:59 Creating LaemmerSignalController
2026-03-20T11:57:25,210  INFO SignalModelFactoryImpl:59 Creating LaemmerSignalController
2026-03-20T11:57:25,210  INFO SignalModelFactoryImpl:59 Creating LaemmerSignalController
2026-03-20T11:57:25,210  INFO SignalModelFactoryImpl:59 Creating LaemmerSignalController
2026-03-20T11:57:25,210  INFO SignalModelFactoryImpl:59 Creating LaemmerSignalController
2026-03-20T11:57:25,210  INFO SignalModelFactoryImpl:59 Creating LaemmerSignalController
2026-03-20T11:57:25,210  INFO SignalModelFactoryImpl:59 Creating LaemmerSignalController
2026-03-20T11:57:25,210  INFO SignalModelFactoryImpl:59 Creating LaemmerSignalController
2026-03-20T11:57:25,210  INFO SignalModelFactoryImpl:59 Creating LaemmerSignalController
2026-03-20T11:57:25,210  INFO SignalModelFactoryImpl:59 Creating LaemmerSignalController
2026-03-20T11:57:25,210  INFO SignalModelFactoryImpl:59 Creating LaemmerSignalController
2026-03-20T11:57:25,210  INFO SignalModelFactoryImpl:59 Creating LaemmerSignalController
2026-03-20T11:57:25,210  INFO SignalModelFactoryImpl:59 Creating LaemmerSignalController
2026-03-20T11:57:25,211  INFO SignalModelFactoryImpl:59 Creating LaemmerSignalController
2026-03-20T11:57:25,211  INFO SignalModelFactoryImpl:59 Creating LaemmerSignalController
2026-03-20T11:57:25,211  INFO SignalModelFactoryImpl:59 Creating LaemmerSignalController
2026-03-20T11:57:25,211  INFO SignalModelFactoryImpl:59 Creating LaemmerSignalController
2026-03-20T11:57:25,211  INFO SignalModelFactoryImpl:59 Creating LaemmerSignalController
2026-03-20T11:57:25,211  INFO SignalModelFactoryImpl:59 Creating LaemmerSignalController
2026-03-20T11:57:25,211  INFO SignalModelFactoryImpl:59 Creating LaemmerSignalController
2026-03-20T11:57:25,211  INFO SignalModelFactoryImpl:59 Creating LaemmerSignalController
2026-03-20T11:57:25,211  INFO SignalModelFactoryImpl:59 Creating LaemmerSignalController
2026-03-20T11:57:25,211  INFO SignalModelFactoryImpl:59 Creating LaemmerSignalController
2026-03-20T11:57:25,211  INFO SignalModelFactoryImpl:59 Creating LaemmerSignalController
2026-03-20T11:57:25,211  INFO SignalModelFactoryImpl:59 Creating LaemmerSignalController
2026-03-20T11:57:25,211  INFO SignalModelFactoryImpl:59 Creating LaemmerSignalController
2026-03-20T11:57:25,211  INFO SignalModelFactoryImpl:59 Creating LaemmerSignalController
2026-03-20T11:57:25,211  INFO SignalModelFactoryImpl:59 Creating LaemmerSignalController
2026-03-20T11:57:25,211  INFO SignalModelFactoryImpl:59 Creating LaemmerSignalController
2026-03-20T11:57:25,211  INFO SignalModelFactoryImpl:59 Creating LaemmerSignalController
2026-03-20T11:57:25,211  INFO SignalModelFactoryImpl:59 Creating LaemmerSignalController
2026-03-20T11:57:25,211  INFO SignalModelFactoryImpl:59 Creating LaemmerSignalController
2026-03-20T11:57:25,211  INFO SignalModelFactoryImpl:59 Creating LaemmerSignalController
2026-03-20T11:57:25,211  INFO SignalModelFactoryImpl:59 Creating LaemmerSignalController
2026-03-20T11:57:25,211  INFO SignalModelFactoryImpl:59 Creating LaemmerSignalController
2026-03-20T11:57:25,211  INFO SignalModelFactoryImpl:59 Creating LaemmerSignalController
2026-03-20T11:57:25,211  INFO SignalModelFactoryImpl:59 Creating LaemmerSignalController
2026-03-20T11:57:25,211  INFO SignalModelFactoryImpl:59 Creating LaemmerSignalController
2026-03-20T11:57:25,211  INFO SignalModelFactoryImpl:59 Creating LaemmerSignalController
2026-03-20T11:57:25,211  INFO SignalModelFactoryImpl:59 Creating LaemmerSignalController
2026-03-20T11:57:25,211  INFO SignalModelFactoryImpl:59 Creating LaemmerSignalController
2026-03-20T11:57:25,211  INFO SignalModelFactoryImpl:59 Creating LaemmerSignalController
2026-03-20T11:57:25,211  INFO SignalModelFactoryImpl:59 Creating LaemmerSignalController
2026-03-20T11:57:25,211  INFO SignalModelFactoryImpl:59 Creating LaemmerSignalController
2026-03-20T11:57:25,211  INFO SignalModelFactoryImpl:59 Creating LaemmerSignalController
2026-03-20T11:57:25,211  INFO SignalModelFactoryImpl:59 Creating LaemmerSignalController
2026-03-20T11:57:25,211  INFO SignalModelFactoryImpl:59 Creating LaemmerSignalController
2026-03-20T11:57:25,211  INFO SignalModelFactoryImpl:59 Creating LaemmerSignalController
2026-03-20T11:57:25,211  INFO SignalModelFactoryImpl:59 Creating LaemmerSignalController
2026-03-20T11:57:25,211  INFO SignalModelFactoryImpl:59 Creating LaemmerSignalController
2026-03-20T11:57:25,211  INFO SignalModelFactoryImpl:59 Creating LaemmerSignalController
2026-03-20T11:57:25,211  INFO SignalModelFactoryImpl:59 Creating LaemmerSignalController
2026-03-20T11:57:25,211  INFO SignalModelFactoryImpl:59 Creating LaemmerSignalController
2026-03-20T11:57:25,211  INFO SignalModelFactoryImpl:59 Creating LaemmerSignalController
2026-03-20T11:57:25,212  INFO SignalModelFactoryImpl:59 Creating LaemmerSignalController
2026-03-20T11:57:25,212  INFO SignalModelFactoryImpl:59 Creating LaemmerSignalController
2026-03-20T11:57:25,212  INFO SignalModelFactoryImpl:59 Creating LaemmerSignalController
2026-03-20T11:57:25,212  INFO SignalModelFactoryImpl:59 Creating LaemmerSignalController
2026-03-20T11:57:25,212  INFO SignalModelFactoryImpl:59 Creating LaemmerSignalController
2026-03-20T11:57:25,212  INFO SignalModelFactoryImpl:59 Creating LaemmerSignalController
2026-03-20T11:57:25,212  INFO SignalModelFactoryImpl:59 Creating LaemmerSignalController
2026-03-20T11:57:25,212  INFO SignalModelFactoryImpl:59 Creating LaemmerSignalController
2026-03-20T11:57:25,212  INFO SignalModelFactoryImpl:59 Creating LaemmerSignalController
2026-03-20T11:57:25,212  INFO SignalModelFactoryImpl:59 Creating LaemmerSignalController
2026-03-20T11:57:25,212  INFO SignalModelFactoryImpl:59 Creating LaemmerSignalController
2026-03-20T11:57:25,212  INFO SignalModelFactoryImpl:59 Creating LaemmerSignalController
2026-03-20T11:57:25,212  INFO SignalModelFactoryImpl:59 Creating LaemmerSignalController
2026-03-20T11:57:25,212  INFO SignalModelFactoryImpl:59 Creating LaemmerSignalController
2026-03-20T11:57:25,212  INFO SignalModelFactoryImpl:59 Creating LaemmerSignalController
2026-03-20T11:57:25,212  INFO SignalModelFactoryImpl:59 Creating LaemmerSignalController
2026-03-20T11:57:25,212  INFO SignalModelFactoryImpl:59 Creating LaemmerSignalController
2026-03-20T11:57:25,212  INFO SignalModelFactoryImpl:59 Creating LaemmerSignalController
2026-03-20T11:57:25,212  INFO SignalModelFactoryImpl:59 Creating LaemmerSignalController
2026-03-20T11:57:25,212  INFO SignalModelFactoryImpl:59 Creating LaemmerSignalController
2026-03-20T11:57:25,212  INFO SignalModelFactoryImpl:59 Creating LaemmerSignalController
2026-03-20T11:57:25,212  INFO SignalModelFactoryImpl:59 Creating LaemmerSignalController
2026-03-20T11:57:25,212  INFO SignalModelFactoryImpl:59 Creating LaemmerSignalController
2026-03-20T11:57:25,212  INFO SignalModelFactoryImpl:59 Creating LaemmerSignalController
2026-03-20T11:57:25,212  INFO SignalModelFactoryImpl:59 Creating LaemmerSignalController
2026-03-20T11:57:25,212  INFO SignalModelFactoryImpl:59 Creating LaemmerSignalController
2026-03-20T11:57:25,212  INFO SignalModelFactoryImpl:59 Creating LaemmerSignalController
2026-03-20T11:57:25,212  INFO SignalModelFactoryImpl:59 Creating LaemmerSignalController
[...]
2026-03-20T12:00:22,768  INFO AbstractQNetsimEngine:356 SIMULATION (QNetsimEngine) AT 14:00:00 : #links=0 #nodes=0
2026-03-20T12:00:22,770  INFO QSim:552 SIMULATION (NEW QSim) AT 14:00:00 : #Veh=56 lost=0 simT=25200.0s realT=177s; (s/r): 142.3728813559322
2026-03-20T12:00:25,393  INFO MemoryObserver:42 used RAM: 303 MB  free: 272 MB  total: 576 MB
2026-03-20T12:01:25,330  INFO AbstractQNetsimEngine:356 SIMULATION (QNetsimEngine) AT 15:00:00 : #links=0 #nodes=0
2026-03-20T12:01:25,331  INFO QSim:552 SIMULATION (NEW QSim) AT 15:00:00 : #Veh=56 lost=0 simT=28800.0s realT=239s; (s/r): 120.5020920502092
2026-03-20T12:01:25,399  INFO MemoryObserver:42 used RAM: 253 MB  free: 322 MB  total: 576 MB
2026-03-20T12:01:54,800  INFO AbstractQNetsimEngine:356 SIMULATION (QNetsimEngine) AT 16:00:00 : #links=0 #nodes=0
2026-03-20T12:01:54,801  INFO QSim:552 SIMULATION (NEW QSim) AT 16:00:00 : #Veh=51 lost=0 simT=32400.0s realT=269s; (s/r): 120.4460966542751
2026-03-20T12:02:17,355  INFO AbstractQNetsimEngine:356 SIMULATION (QNetsimEngine) AT 17:00:00 : #links=0 #nodes=0
2026-03-20T12:02:17,356  INFO QSim:552 SIMULATION (NEW QSim) AT 17:00:00 : #Veh=32 lost=0 simT=36000.0s realT=291s; (s/r): 123.71134020618557
2026-03-20T12:02:25,402  INFO MemoryObserver:42 used RAM: 239 MB  free: 336 MB  total: 576 MB
2026-03-20T12:02:43,070  INFO AbstractQNetsimEngine:356 SIMULATION (QNetsimEngine) AT 18:00:00 : #links=0 #nodes=0
2026-03-20T12:02:43,071  INFO QSim:552 SIMULATION (NEW QSim) AT 18:00:00 : #Veh=21 lost=0 simT=39600.0s realT=317s; (s/r): 124.9211356466877
2026-03-20T12:03:16,273  INFO AbstractQNetsimEngine:356 SIMULATION (QNetsimEngine) AT 19:00:00 : #links=0 #nodes=0
2026-03-20T12:03:16,274  INFO QSim:552 SIMULATION (NEW QSim) AT 19:00:00 : #Veh=4 lost=0 simT=43200.0s realT=350s; (s/r): 123.42857142857143
2026-03-20T12:03:25,408  INFO MemoryObserver:42 used RAM: 171 MB  free: 404 MB  total: 576 MB
2026-03-20T12:03:29,356  INFO Gbl:196 Thread performance: Thread=class org.matsim.core.events.SimStepParallelEventsManagerImpl$ProcessEventsRunnable0  cpu-time=0.396386sec
2026-03-20T12:03:29,356  INFO AbstractController$9:237 ### ITERATION 0 fires after mobsim event
2026-03-20T12:03:29,358  INFO ControlerListenerManagerImpl:269 calling notifyAfterMobsim on org.matsim.analysis.LegTimesControlerListener with priority 0.0
2026-03-20T12:03:29,359  INFO LegTimesControlerListener:73 [0] average leg duration is: 0 seconds = 00:00:00
2026-03-20T12:03:29,359  INFO ControlerListenerManagerImpl:269 calling notifyAfterMobsim on org.matsim.core.events.MobsimScopeEventHandling with priority 0.0
2026-03-20T12:03:29,360  INFO ControlerListenerManagerImpl:269 calling notifyAfterMobsim on org.matsim.core.scoring.EventsToActivities$1 with priority 0.0
2026-03-20T12:03:29,361  WARN CharyparNagelActivityScoring:271 The first and the last activity do not have the same type. 
2026-03-20T12:03:29,361  WARN CharyparNagelActivityScoring:272 Will score the first activity from midnight to its end, and the last activity from its start to midnight.
2026-03-20T12:03:29,361  WARN CharyparNagelActivityScoring:273 Because of the nonlinear function, this is not the same as scoring from start to end.
2026-03-20T12:03:29,362  WARN CharyparNagelActivityScoring:274 first activity: act [type=home][coord=[x=664745.902634106 | y=1519611.737496155]][linkId=3941][startTime=undefined][endTime=17:28:00][duration=undefined][facilityId=null]
2026-03-20T12:03:29,362  WARN CharyparNagelActivityScoring:275 last activity: act [type=shopping][coord=[x=662605.2928131963 | y=1522683.6497355176]][linkId=3941][startTime=17:28:00][endTime=undefined][duration=undefined][facilityId=null]
2026-03-20T12:03:29,362  WARN CharyparNagelActivityScoring:276 This may also happen when plans are not completed when the simulation ends.
2026-03-20T12:03:29,362  WARN CharyparNagelActivityScoring:278 Additional warnings of this type are suppressed.
2026-03-20T12:03:29,364  INFO ControlerListenerManagerImpl:272 [it.0] all ControlerAfterMobsimListeners called.
2026-03-20T12:03:29,364  INFO AbstractController$4:162 ### ITERATION 0 fires scoring event
2026-03-20T12:03:29,364  INFO ControlerListenerManagerImpl:197 calling notifyScoring on org.matsim.core.scoring.PlansScoringImpl with priority 0.0
2026-03-20T12:03:29,367  INFO NewScoreAssignerImpl:60 it: 0 msaStart: null
2026-03-20T12:03:29,367  INFO ControlerListenerManagerImpl:209 [it.0] all ControlerScoringListeners called.
2026-03-20T12:03:29,368  INFO AbstractController$5:170 ### ITERATION 0 fires iteration end event
2026-03-20T12:03:29,368  INFO ControlerListenerManagerImpl:172 calling notifyIterationEnds on org.matsim.core.controler.corelisteners.EventsHandlingImpl with priority 0.0
2026-03-20T12:03:29,369  INFO EventsManagerImpl:164 removing Event-Handler: org.matsim.core.events.algorithms.EventWriterXML
2026-03-20T12:03:29,369  INFO EventsManagerImpl:164 removing Event-Handler: org.matsim.core.events.algorithms.EventWriterXML
2026-03-20T12:03:29,369  INFO ControlerListenerManagerImpl:172 calling notifyIterationEnds on org.matsim.core.scoring.PlansScoringImpl with priority 0.0
2026-03-20T12:03:29,369  INFO ControlerListenerManagerImpl:180 calling notifyIterationEnds on org.matsim.counts.CountsControlerListener with priority 0.0
2026-03-20T12:03:29,370  INFO ControlerListenerManagerImpl:180 calling notifyIterationEnds on org.matsim.analysis.ModeChoiceCoverageControlerListener with priority 0.0
2026-03-20T12:03:29,372  INFO ModeChoiceCoverageControlerListener:144 -- mode choice coverage (1x) of mode car = 1.0
2026-03-20T12:03:29,372  INFO ModeChoiceCoverageControlerListener:144 -- mode choice coverage (5x) of mode car = 0.0
2026-03-20T12:03:29,372  INFO ModeChoiceCoverageControlerListener:144 -- mode choice coverage (10x) of mode car = 0.0
2026-03-20T12:03:29,373  INFO ControlerListenerManagerImpl:180 calling notifyIterationEnds on org.matsim.analysis.ModeStatsControlerListener with priority 0.0
2026-03-20T12:03:29,374  INFO ModeStatsControlerListener:133 Mode shares over all 167.0 trips found. MainModeIdentifier: class org.matsim.core.router.DefaultAnalysisMainModeIdentifier
2026-03-20T12:03:29,374  INFO ModeStatsControlerListener:140 -- mode share of mode car = 1.0
2026-03-20T12:03:29,374  INFO ControlerListenerManagerImpl:180 calling notifyIterationEnds on org.matsim.analysis.ScoreStatsControlerListener with priority 0.0
2026-03-20T12:03:29,375  INFO ScoreStatsControlerListener:154 -- avg. score of the executed plan of each agent: 41.38337620036051
2026-03-20T12:03:29,376  INFO ScoreStatsControlerListener:155 -- avg. score of the worst plan of each agent: 41.38337620036051
2026-03-20T12:03:29,376  INFO ScoreStatsControlerListener:156 -- avg. of the avg. plan score per agent: 41.38337620036051
2026-03-20T12:03:29,376  INFO ScoreStatsControlerListener:157 -- avg. score of the best plan of each agent: 41.38337620036051
2026-03-20T12:03:29,377  INFO ControlerListenerManagerImpl:180 calling notifyIterationEnds on org.matsim.analysis.IterationTravelStatsControlerListener with priority 0.0
2026-03-20T12:03:29,388  INFO TravelDistanceStats:115 -- average leg distance per plan (executed plans only): 0.0 meters
2026-03-20T12:03:29,388  INFO TravelDistanceStats:116 average leg distance per Person (executed plans only): 0.0 meters (statistic on all 167 legs which have a finite distance)
2026-03-20T12:03:29,388  INFO TravelDistanceStats:117 -- average trip distance per plan (executed plans only): 0.0 meters
2026-03-20T12:03:29,388  INFO TravelDistanceStats:118 average trip distance per Person (executed plans only): 0.0 meters (statistic on all 167 trips which have a finite distance)
2026-03-20T12:03:29,388  INFO TravelDistanceStats:119 (TravelDistanceStats takes an average over all legs where the simulation reports travelled (network) distances
2026-03-20T12:03:29,388  INFO TravelDistanceStats:120 (and teleported legs whose route contains a distance.)
2026-03-20T12:03:29,416  INFO ActivityWriter:39 Writing all Activities to activitiescsv
2026-03-20T12:03:29,423  INFO ActivityWriter:59 ...done
2026-03-20T12:03:29,423  INFO ControlerListenerManagerImpl:180 calling notifyIterationEnds on org.matsim.analysis.LegTimesControlerListener with priority 0.0
2026-03-20T12:03:29,423  INFO EventsManagerImpl:164 removing Event-Handler: org.matsim.analysis.CalcLegTimes
2026-03-20T12:03:29,423  INFO EventsManagerImpl:164 removing Event-Handler: org.matsim.analysis.CalcLegTimes
2026-03-20T12:03:29,423  INFO ControlerListenerManagerImpl:180 calling notifyIterationEnds on org.matsim.analysis.LegHistogramListener with priority 0.0
2026-03-20T12:03:29,427  INFO LegHistogramListener:78 number of legs:	334	100%
2026-03-20T12:03:29,428  INFO LegHistogramListener:85 number of car legs:	334	100.0%
2026-03-20T12:03:31,267  INFO ControlerListenerManagerImpl:180 calling notifyIterationEnds on org.matsim.analysis.LinkStatsControlerListener with priority 0.0
2026-03-20T12:03:31,267  INFO ControlerListenerManagerImpl:184 [it.0] all ControlerIterationEndsListeners called.
2026-03-20T12:03:31,358  INFO AbstractController:184 ### ITERATION 0 ENDS
2026-03-20T12:03:31,358  INFO AbstractController:185 ###################################################
2026-03-20T12:03:31,358  INFO MatsimRuntimeModifications:80 S H U T D O W N   ---   start shutdown.
2026-03-20T12:03:31,359  INFO ControlerListenerManagerImpl:128 calling notifyShutdown on org.matsim.core.controler.corelisteners.EventsHandlingImpl with priority 0.0
2026-03-20T12:03:31,359  INFO ControlerListenerManagerImpl:128 calling notifyShutdown on org.matsim.core.controler.corelisteners.DumpDataAtEndImpl with priority 0.0
2026-03-20T12:03:31,360  INFO Counter:70 [PopulationWriter] dumped person # 1
2026-03-20T12:03:31,361  INFO Counter:70 [PopulationWriter] dumped person # 2
2026-03-20T12:03:31,361  INFO Counter:70 [PopulationWriter] dumped person # 4
2026-03-20T12:03:31,361  INFO Counter:70 [PopulationWriter] dumped person # 8
2026-03-20T12:03:31,361  INFO Counter:70 [PopulationWriter] dumped person # 16
2026-03-20T12:03:31,361  INFO Counter:70 [PopulationWriter] dumped person # 32
2026-03-20T12:03:31,361  INFO Counter:70 [PopulationWriter] dumped person # 64
2026-03-20T12:03:31,362  INFO Counter:70 [ParallelPopulationWriterV6] dumped person # 1
2026-03-20T12:03:31,363  INFO Counter:70 [ParallelPopulationWriterV6] dumped person # 2
2026-03-20T12:03:31,363  INFO Counter:70 [ParallelPopulationWriterV6] dumped person # 4
2026-03-20T12:03:31,363  INFO Counter:70 [ParallelPopulationWriterV6] dumped person # 8
2026-03-20T12:03:31,363  INFO Counter:70 [ParallelPopulationWriterV6] dumped person # 16
2026-03-20T12:03:31,363  INFO Counter:70 [ParallelPopulationWriterV6] dumped person # 32
2026-03-20T12:03:31,364  INFO Counter:70 [ParallelPopulationWriterV6] dumped person # 64
2026-03-20T12:03:31,366  INFO Counter:75 [ParallelPopulationWriterV6] dumped person # 100
2026-03-20T12:03:31,367  INFO PopulationWriter:150 Population written to: /Users/rei/Documents/GitHub/travel-simulation-in-bangkok-using-activity-based-model/output/laemmer_simulation/output_plans.xml.gz
2026-03-20T12:03:31,367  INFO Counter:75 [PopulationWriter] dumped person # 100
2026-03-20T12:03:31,368  INFO NetworkWriter:70 Writing network to file: /Users/rei/Documents/GitHub/travel-simulation-in-bangkok-using-activity-based-model/output/laemmer_simulation/output_network.xml.gz...
2026-03-20T12:03:31,598  INFO NetworkWriter:73 done.
2026-03-20T12:03:31,603  INFO Config:461 setting context to [file:/Users/rei/Documents/GitHub/travel-simulation-in-bangkok-using-activity-based-model/]
2026-03-20T12:03:31,604  INFO Config:461 setting context to [file:/Users/rei/Documents/GitHub/travel-simulation-in-bangkok-using-activity-based-model/]
2026-03-20T12:03:31,604  INFO Config:461 setting context to [file:/Users/rei/Documents/GitHub/travel-simulation-in-bangkok-using-activity-based-model/]
2026-03-20T12:03:31,606  INFO Config:461 setting context to [file:/Users/rei/Documents/GitHub/travel-simulation-in-bangkok-using-activity-based-model/]
2026-03-20T12:03:31,606  INFO Config:461 setting context to [file:/Users/rei/Documents/GitHub/travel-simulation-in-bangkok-using-activity-based-model/]
2026-03-20T12:03:31,607  INFO Config:461 setting context to [file:/Users/rei/Documents/GitHub/travel-simulation-in-bangkok-using-activity-based-model/]
2026-03-20T12:03:31,608  INFO Config:461 setting context to [file:/Users/rei/Documents/GitHub/travel-simulation-in-bangkok-using-activity-based-model/]
2026-03-20T12:03:31,609  INFO Config:461 setting context to [file:/Users/rei/Documents/GitHub/travel-simulation-in-bangkok-using-activity-based-model/]
2026-03-20T12:03:31,609  INFO Config:461 setting context to [file:/Users/rei/Documents/GitHub/travel-simulation-in-bangkok-using-activity-based-model/]
2026-03-20T12:03:31,610  INFO Config:461 setting context to [file:/Users/rei/Documents/GitHub/travel-simulation-in-bangkok-using-activity-based-model/]
2026-03-20T12:03:31,610  INFO Config:461 setting context to [file:/Users/rei/Documents/GitHub/travel-simulation-in-bangkok-using-activity-based-model/]
2026-03-20T12:03:31,611  INFO Config:461 setting context to [file:/Users/rei/Documents/GitHub/travel-simulation-in-bangkok-using-activity-based-model/]
2026-03-20T12:03:31,612  INFO Config:461 setting context to [file:/Users/rei/Documents/GitHub/travel-simulation-in-bangkok-using-activity-based-model/]
2026-03-20T12:03:31,612  INFO Config:461 setting context to [file:/Users/rei/Documents/GitHub/travel-simulation-in-bangkok-using-activity-based-model/]
2026-03-20T12:03:31,614  INFO Config:461 setting context to [file:/Users/rei/Documents/GitHub/travel-simulation-in-bangkok-using-activity-based-model/]
2026-03-20T12:03:31,615  INFO Config:461 setting context to [file:/Users/rei/Documents/GitHub/travel-simulation-in-bangkok-using-activity-based-model/]
2026-03-20T12:03:31,615  INFO Config:461 setting context to [file:/Users/rei/Documents/GitHub/travel-simulation-in-bangkok-using-activity-based-model/]
2026-03-20T12:03:31,616  INFO Config:461 setting context to [file:/Users/rei/Documents/GitHub/travel-simulation-in-bangkok-using-activity-based-model/]
2026-03-20T12:03:31,617  INFO Config:461 setting context to [file:/Users/rei/Documents/GitHub/travel-simulation-in-bangkok-using-activity-based-model/]
2026-03-20T12:03:31,622  INFO Config:461 setting context to [file:/Users/rei/Documents/GitHub/travel-simulation-in-bangkok-using-activity-based-model/]
2026-03-20T12:03:31,623  INFO Config:461 setting context to [file:/Users/rei/Documents/GitHub/travel-simulation-in-bangkok-using-activity-based-model/]
2026-03-20T12:03:31,623  INFO Config:461 setting context to [file:/Users/rei/Documents/GitHub/travel-simulation-in-bangkok-using-activity-based-model/]
2026-03-20T12:03:31,624  INFO Config:461 setting context to [file:/Users/rei/Documents/GitHub/travel-simulation-in-bangkok-using-activity-based-model/]
2026-03-20T12:03:31,625  INFO Config:461 setting context to [file:/Users/rei/Documents/GitHub/travel-simulation-in-bangkok-using-activity-based-model/]
2026-03-20T12:03:31,625  INFO Config:461 setting context to [file:/Users/rei/Documents/GitHub/travel-simulation-in-bangkok-using-activity-based-model/]
2026-03-20T12:03:31,626  INFO Config:461 setting context to [file:/Users/rei/Documents/GitHub/travel-simulation-in-bangkok-using-activity-based-model/]
2026-03-20T12:03:31,627  INFO Config:461 setting context to [file:/Users/rei/Documents/GitHub/travel-simulation-in-bangkok-using-activity-based-model/]
2026-03-20T12:03:31,631  INFO MatsimVehicleWriter:49 about to write vehicles to: /Users/rei/Documents/GitHub/travel-simulation-in-bangkok-using-activity-based-model/output/laemmer_simulation/output_vehicles.xml.gz
2026-03-20T12:03:31,631  INFO VehicleWriterV2:64 about to write vehicles to: /Users/rei/Documents/GitHub/travel-simulation-in-bangkok-using-activity-based-model/output/laemmer_simulation/output_vehicles.xml.gz
2026-03-20T12:03:31,632  INFO MatsimVehicleWriter:49 about to write vehicles to: /Users/rei/Documents/GitHub/travel-simulation-in-bangkok-using-activity-based-model/output/laemmer_simulation/output_allVehicles.xml.gz
2026-03-20T12:03:31,632  INFO VehicleWriterV2:64 about to write vehicles to: /Users/rei/Documents/GitHub/travel-simulation-in-bangkok-using-activity-based-model/output/laemmer_simulation/output_allVehicles.xml.gz
2026-03-20T12:03:31,634  INFO HouseholdsWriterV10:66 about to write  households to: /Users/rei/Documents/GitHub/travel-simulation-in-bangkok-using-activity-based-model/output/laemmer_simulation/output_households.xml.gz
2026-03-20T12:03:31,634  INFO Counter:75 [HouseholdsWriter] wrote household # 0
2026-03-20T12:03:31,636  INFO CountsWriterV2:45 Write Counts to /Users/rei/Documents/GitHub/travel-simulation-in-bangkok-using-activity-based-model/output/laemmer_simulation/output_counts.xml.gz
2026-03-20T12:03:31,649  INFO ControlerListenerManagerImpl:135 calling notifyShutdown on org.matsim.analysis.ModeChoiceCoverageControlerListener with priority 0.0
2026-03-20T12:03:31,649  INFO ControlerListenerManagerImpl:135 calling notifyShutdown on org.matsim.analysis.ScoreStatsControlerListener with priority 0.0
2026-03-20T12:03:31,649  INFO ControlerListenerManagerImpl:135 calling notifyShutdown on org.matsim.analysis.IterationTravelStatsControlerListener with priority 0.0
2026-03-20T12:03:31,650  INFO PersonWriter:36 Writing all Persons to personscsv
2026-03-20T12:03:31,652  INFO PersonWriter:54 ...done
2026-03-20T12:03:31,652  INFO ControlerListenerManagerImpl:135 calling notifyShutdown on org.matsim.analysis.LinkStatsControlerListener with priority 0.0
2026-03-20T12:03:31,982  INFO ControlerListenerManagerImpl:135 calling notifyShutdown on org.matsim.contrib.signals.builder.SensorBasedSignalControlerListener with priority 0.0
2026-03-20T12:03:31,995  INFO SignalSystemsWriter20:100 writing file: /Users/rei/Documents/GitHub/travel-simulation-in-bangkok-using-activity-based-model/output/laemmer_simulation/output_signal_systems_v2.0.xml.gz
2026-03-20T12:03:32,091  INFO SignalSystemsWriter20:109 /Users/rei/Documents/GitHub/travel-simulation-in-bangkok-using-activity-based-model/output/laemmer_simulation/output_signal_systems_v2.0.xml.gz written successfully.
2026-03-20T12:03:32,111  INFO SignalGroupsWriter20:63 writing file: /Users/rei/Documents/GitHub/travel-simulation-in-bangkok-using-activity-based-model/output/laemmer_simulation/output_signal_groups_v2.0.xml.gz
2026-03-20T12:03:32,180  INFO SignalGroupsWriter20:72 /Users/rei/Documents/GitHub/travel-simulation-in-bangkok-using-activity-based-model/output/laemmer_simulation/output_signal_groups_v2.0.xml.gz written successfully.
2026-03-20T12:03:32,184  INFO SignalControlWriter20:121 writing file: /Users/rei/Documents/GitHub/travel-simulation-in-bangkok-using-activity-based-model/output/laemmer_simulation/output_signal_control_v2.0.xml.gz
2026-03-20T12:03:32,213  INFO SignalControlWriter20:130 /Users/rei/Documents/GitHub/travel-simulation-in-bangkok-using-activity-based-model/output/laemmer_simulation/output_signal_control_v2.0.xml.gz written successfully.
2026-03-20T12:03:32,213  INFO SignalsScenarioWriter:115 No AmberTimesData object set to write!
2026-03-20T12:03:32,213  INFO SignalsScenarioWriter:121 No IntergreenTimesData object set to write!
2026-03-20T12:03:32,213  INFO SignalsScenarioWriter:127 No ConflictData object set to write!
2026-03-20T12:03:32,213  INFO ControlerListenerManagerImpl:138 all ControlerShutdownListeners called.
2026-03-20T12:03:32,213  INFO MatsimRuntimeModifications:103 S H U T D O W N   ---   shutdown completed.
2026-03-20T12:03:32,213  INFO OutputDirectoryLogging:173 closing the logfile, i.e. messages sent to the logger after this message are not written to the logfile.
2026-03-20T12:03:32,214  INFO OutputDirectoryLogging:173 closing the logfile, i.e. messages sent to the logger after this message are not written to the logfile.
